
  Mrv0541 04191212112D          

 33 36  0  0  0  0            999 V2000
    0.0000    0.8250    0.0000 C   0  0  0  0  0  0  0  0  0  0  0  0
    0.7145    0.4125    0.0000 C   0  0  0  0  0  0  0  0  0  0  0  0
    0.7145   -0.4125    0.0000 C   0  0  0  0  0  0  0  0  0  0  0  0
    0.0000   -0.8250    0.0000 C   0  0  0  0  0  0  0  0  0  0  0  0
   -0.7145   -0.4125    0.0000 C   0  0  0  0  0  0  0  0  0  0  0  0
   -0.7145    0.4125    0.0000 N   0  0  0  0  0  0  0  0  0  0  0  0
    0.7145    2.0625    0.0000 C   0  0  0  0  0  0  0  0  0  0  0  0
    0.0000    1.6500    0.0000 C   0  0  0  0  0  0  0  0  0  0  0  0
    1.4289    0.8250    0.0000 C   0  0  0  0  0  0  0  0  0  0  0  0
    1.4289    1.6500    0.0000 C   0  0  0  0  0  0  0  0  0  0  0  0
    0.0000   -1.6500    0.0000 C   0  0  0  0  0  0  0  0  0  0  0  0
    0.7145   -2.0625    0.0000 C   0  0  0  0  0  0  0  0  0  0  0  0
    1.4289   -1.6500    0.0000 C   0  0  0  0  0  0  0  0  0  0  0  0
    1.4289   -0.8250    0.0000 C   0  0  0  0  0  0  0  0  0  0  0  0
   -1.4991    0.6674    0.0000 N   0  0  0  0  0  0  0  0  0  0  0  0
   -1.9840    0.0000    0.0000 N   0  0  0  0  0  0  0  0  0  0  0  0
   -1.4991   -0.6674    0.0000 N   0  0  0  0  0  0  0  0  0  0  0  0
    0.7145    2.8875    0.0000 C   0  0  0  0  0  0  0  0  0  0  0  0
    2.2136    3.0451    0.0000 C   0  0  0  0  0  0  0  0  0  0  0  0
    2.6985    3.7125    0.0000 N   0  0  0  0  0  0  0  0  0  0  0  0
    1.4289    3.3000    0.0000 N   0  0  0  0  0  0  0  0  0  0  0  0
    2.4685    2.2604    0.0000 C   0  0  0  0  0  0  0  0  0  0  0  0
    3.2755    2.0889    0.0000 C   0  0  0  0  0  0  0  0  0  0  0  0
    3.5304    1.3043    0.0000 C   0  0  0  0  0  0  0  0  0  0  0  0
    1.4289    4.1250    0.0000 C   0  0  0  0  0  0  0  0  0  0  0  0
    0.7145    4.5375    0.0000 C   0  0  0  0  0  0  0  0  0  0  0  0
    0.7145    5.3625    0.0000 O   0  0  0  0  0  0  0  0  0  0  0  0
    0.0000    4.1250    0.0000 O   0  0  0  0  0  0  0  0  0  0  0  0
    2.2136    4.3799    0.0000 C   0  0  0  0  0  0  0  0  0  0  0  0
    2.4685    5.1646    0.0000 C   0  0  0  0  0  0  0  0  0  0  0  0
    1.9165    5.7777    0.0000 C   0  0  0  0  0  0  0  0  0  0  0  0
    3.2755    5.3361    0.0000 C   0  0  0  0  0  0  0  0  0  0  0  0
    2.7234    5.9492    0.0000 O   0  0  0  0  0  0  0  0  0  0  0  0
  8  1  2  0  0  0  0
  1  2  1  0  0  0  0
  2  9  2  0  0  0  0
  2  3  1  0  0  0  0
  3 14  1  0  0  0  0
  3  4  2  0  0  0  0
  4 11  1  0  0  0  0
  4  5  1  0  0  0  0
  5 17  2  0  0  0  0
  5  6  1  0  0  0  0
  6 15  1  0  0  0  0
 18  7  1  0  0  0  0
  7  8  1  0  0  0  0
  7 10  2  0  0  0  0
  9 10  1  0  0  0  0
 11 12  2  0  0  0  0
 12 13  1  0  0  0  0
 13 14  2  0  0  0  0
 15 16  2  0  0  0  0
 16 17  1  0  0  0  0
 21 18  1  0  0  0  0
 19 20  2  0  0  0  0
 19 21  1  0  0  0  0
 19 22  1  0  0  0  0
 20 29  1  0  0  0  0
 29 25  2  0  0  0  0
 25 21  1  0  0  0  0
 22 23  1  0  0  0  0
 23 24  1  0  0  0  0
 25 26  1  0  0  0  0
 26 28  1  0  0  0  0
 26 27  2  0  0  0  0
 29 30  1  0  0  0  0
 30 33  1  0  0  0  0
 30 31  1  0  0  0  0
 30 32  1  0  0  0  0
M  END
> <DRUGBANK_ID>
DB00275

> <DRUG_GROUPS>
approved; investigational

> <GENERIC_NAME>
Olmesartan

> <SYNONYMS>
Olmesartan medoxomil

> <BRANDS>
Benicar; Erastapex; Golme; Olmetec; WinBP

> <CHEMICAL_FORMULA>
C24H26N6O3

> <MOLECULAR_WEIGHT>
446.5016

> <EXACT_MASS>
446.206638728

> <IUPAC_NAME>
4-(2-hydroxypropan-2-yl)-2-propyl-1-({4-[2-(1H-1,2,3,4-tetrazol-5-yl)phenyl]phenyl}methyl)-1H-imidazole-5-carboxylic acid

> <IUPAC_TRADITIONAL_NAME>
olmesartan

> <INCHI_IDENTIFIER>
InChI=1S/C24H26N6O3/c1-4-7-19-25-21(24(2,3)33)20(23(31)32)30(19)14-15-10-12-16(13-11-15)17-8-5-6-9-18(17)22-26-28-29-27-22/h5-6,8-13,33H,4,7,14H2,1-3H3,(H,31,32)(H,26,27,28,29)

> <INCHI_KEY>
InChIKey=VTRAEEWXHOVJFV-UHFFFAOYSA-N

> <SMILES>
CCCC1=NC(=C(N1CC1=CC=C(C=C1)C1=C(C=CC=C1)C1=NN=NN1)C(O)=O)C(C)(C)O

> <JCHEM_ACCEPTOR_COUNT>
7

> <JCHEM_DONOR_COUNT>
3

> <JCHEM_ACIDIC_PKA>
0.91

> <JCHEM_BASIC_PKA>
5.57

> <JCHEM_PHYSIOLOGICAL_CHARGE>
-2

> <ALOGPS_LOGP>
2.98

> <JCHEM_LOGP>
2.14

> <ALOGPS_LOGS>
-4.6

> <JCHEM_POLARIZABILITY>
47.46

> <JCHEM_POLAR_SURFACE_AREA>
129.81

> <JCHEM_REFRACTIVITY>
137.32

> <JCHEM_ROTATABLE_BOND_COUNT>
8

> <ALOGPS_SOLUBILITY>
1.05e-02 g/l __ 

$$$$
