730
  Mrv0541 02231214572D          

 14 16  0  0  0  0            999 V2000
    6.4356    0.2500    0.0000 S   0  0  0  0  0  0  0  0  0  0  0  0
    3.8596    0.5014    0.0000 N   0  0  0  0  0  0  0  0  0  0  0  0
    3.8596   -0.8265    0.0000 N   0  0  0  0  0  0  0  0  0  0  0  0
    5.6510   -0.8300    0.0000 N   0  0  0  0  0  0  0  0  0  0  0  0
    3.0790    0.2500    0.0000 C   0  0  0  0  0  0  0  0  0  0  0  0
    3.0790   -0.5750    0.0000 C   0  0  0  0  0  0  0  0  0  0  0  0
    4.3411   -0.1625    0.0000 C   0  0  0  0  0  0  0  0  0  0  0  0
    5.1661   -0.1625    0.0000 C   0  0  0  0  0  0  0  0  0  0  0  0
    2.3645    0.6625    0.0000 C   0  0  0  0  0  0  0  0  0  0  0  0
    2.3645   -0.9875    0.0000 C   0  0  0  0  0  0  0  0  0  0  0  0
    1.6500    0.2500    0.0000 C   0  0  0  0  0  0  0  0  0  0  0  0
    1.6500   -0.5750    0.0000 C   0  0  0  0  0  0  0  0  0  0  0  0
    5.6510    0.5049    0.0000 C   0  0  0  0  0  0  0  0  0  0  0  0
    6.4356   -0.5750    0.0000 C   0  0  0  0  0  0  0  0  0  0  0  0
  1 13  1  0  0  0  0
  1 14  1  0  0  0  0
  2  5  1  0  0  0  0
  2  7  1  0  0  0  0
  3  6  1  0  0  0  0
  3  7  2  0  0  0  0
  4  8  1  0  0  0  0
  4 14  2  0  0  0  0
  5  6  1  0  0  0  0
  5  9  2  0  0  0  0
  6 10  2  0  0  0  0
  7  8  1  0  0  0  0
  8 13  2  0  0  0  0
  9 11  1  0  0  0  0
 10 12  1  0  0  0  0
 11 12  2  0  0  0  0
M  END
> <DRUGBANK_ID>
DB00730

> <DRUG_GROUPS>
approved

> <GENERIC_NAME>
Thiabendazole

> <SYNONYMS>
TBDZ; TBZ; Tiabendazole

> <BRANDS>
Mintezol

> <CHEMICAL_FORMULA>
C10H7N3S

> <MOLECULAR_WEIGHT>
201.248

> <EXACT_MASS>
201.036067929

> <IUPAC_NAME>
2-(1,3-thiazol-4-yl)-1H-1,3-benzodiazole

> <IUPAC_TRADITIONAL_NAME>
thiabendazole

> <INCHI_IDENTIFIER>
InChI=1S/C10H7N3S/c1-2-4-8-7(3-1)12-10(13-8)9-5-14-6-11-9/h1-6H,(H,12,13)

> <INCHI_KEY>
InChIKey=WJCNZQLZVWNLKY-UHFFFAOYSA-N

> <SMILES>
N1C2=CC=CC=C2N=C1C1=CSC=N1

> <JCHEM_ACCEPTOR_COUNT>
2

> <JCHEM_DONOR_COUNT>
1

> <JCHEM_ACIDIC_PKA>
10.28

> <JCHEM_BASIC_PKA>
4.08

> <JCHEM_PHYSIOLOGICAL_CHARGE>
0

> <ALOGPS_LOGP>
2.47

> <JCHEM_LOGP>
2.33

> <ALOGPS_LOGS>
-3.2

> <JCHEM_POLARIZABILITY>
21.02

> <JCHEM_POLAR_SURFACE_AREA>
41.57

> <JCHEM_REFRACTIVITY>
64.91

> <JCHEM_ROTATABLE_BOND_COUNT>
1

> <ALOGPS_SOLUBILITY>
1.38e-01 g/l __ 

$$$$
