924
  Mrv0541 02231215062D          

 21 23  0  0  0  0            999 V2000
    2.5993   -1.7285    0.0000 N   0  0  0  0  0  0  0  0  0  0  0  0
    4.0282    0.7463    0.0000 C   0  0  0  0  0  0  0  0  0  0  0  0
    4.7714    1.1042    0.0000 C   0  0  0  0  0  0  0  0  0  0  0  0
    3.2848    1.1042    0.0000 C   0  0  0  0  0  0  0  0  0  0  0  0
    3.3137   -0.4911    0.0000 C   0  0  0  0  0  0  0  0  0  0  0  0
    4.0282   -0.0786    0.0000 C   0  0  0  0  0  0  0  0  0  0  0  0
    3.3136   -1.3160    0.0000 C   0  0  0  0  0  0  0  0  0  0  0  0
    4.9550    1.9084    0.0000 C   0  0  0  0  0  0  0  0  0  0  0  0
    3.1013    1.9084    0.0000 C   0  0  0  0  0  0  0  0  0  0  0  0
    4.4406    2.5534    0.0000 C   0  0  0  0  0  0  0  0  0  0  0  0
    3.6157    2.5534    0.0000 C   0  0  0  0  0  0  0  0  0  0  0  0
    5.3922    0.5102    0.0000 C   0  0  0  0  0  0  0  0  0  0  0  0
    2.6641    0.5102    0.0000 C   0  0  0  0  0  0  0  0  0  0  0  0
    5.7720    2.1743    0.0000 C   0  0  0  0  0  0  0  0  0  0  0  0
    2.2842    2.1743    0.0000 C   0  0  0  0  0  0  0  0  0  0  0  0
    6.2152    0.7570    0.0000 C   0  0  0  0  0  0  0  0  0  0  0  0
    1.8410    0.7570    0.0000 C   0  0  0  0  0  0  0  0  0  0  0  0
    6.4064    1.5948    0.0000 C   0  0  0  0  0  0  0  0  0  0  0  0
    1.6499    1.5949    0.0000 C   0  0  0  0  0  0  0  0  0  0  0  0
    2.5993   -2.5534    0.0000 C   0  0  0  0  0  0  0  0  0  0  0  0
    1.8848   -1.3160    0.0000 C   0  0  0  0  0  0  0  0  0  0  0  0
  1  7  1  0  0  0  0
  1 20  1  0  0  0  0
  1 21  1  0  0  0  0
  2  3  1  0  0  0  0
  2  4  1  0  0  0  0
  2  6  2  0  0  0  0
  3  8  1  0  0  0  0
  3 12  2  0  0  0  0
  4  9  1  0  0  0  0
  4 13  2  0  0  0  0
  5  6  1  0  0  0  0
  5  7  1  0  0  0  0
  8 10  1  0  0  0  0
  8 14  2  0  0  0  0
  9 11  1  0  0  0  0
  9 15  2  0  0  0  0
 10 11  2  0  0  0  0
 12 16  1  0  0  0  0
 13 17  1  0  0  0  0
 14 18  1  0  0  0  0
 15 19  1  0  0  0  0
 16 18  2  0  0  0  0
 17 19  2  0  0  0  0
M  END
> <DRUGBANK_ID>
DB00924

> <DRUG_GROUPS>
approved

> <GENERIC_NAME>
Cyclobenzaprine

> <SALTS>
Cyclobenzaprine Hydrochloride

> <BRANDS>


> <CHEMICAL_FORMULA>
C20H21N

> <MOLECULAR_WEIGHT>
275.3874

> <EXACT_MASS>
275.167399677

> <IUPAC_NAME>
dimethyl({3-[(2E)-tricyclo[9.4.0.0^{3,8}]pentadeca-1(11),3(8),4,6,9,12,14-heptaen-2-ylidene]propyl})amine

> <IUPAC_TRADITIONAL_NAME>
cyclobenzaprine

> <INCHI_IDENTIFIER>
InChI=1S/C20H21N/c1-21(2)15-7-12-20-18-10-5-3-8-16(18)13-14-17-9-4-6-11-19(17)20/h3-6,8-14H,7,15H2,1-2H3

> <INCHI_KEY>
InChIKey=JURKNVYFZMSNLP-UHFFFAOYSA-N

> <SMILES>
CN(C)CCC=C1C2=CC=CC=C2C=CC2=CC=CC=C12

> <JCHEM_ACCEPTOR_COUNT>
1

> <JCHEM_DONOR_COUNT>
0

> <JCHEM_BASIC_PKA>
9.76

> <JCHEM_PHYSIOLOGICAL_CHARGE>
1

> <ALOGPS_LOGP>
4.73

> <JCHEM_LOGP>
4.61

> <ALOGPS_LOGS>
-4.6

> <JCHEM_POLARIZABILITY>
32.95

> <JCHEM_POLAR_SURFACE_AREA>
3.24

> <JCHEM_REFRACTIVITY>
102.62

> <JCHEM_ROTATABLE_BOND_COUNT>
3

> <ALOGPS_SOLUBILITY>
6.89e-03 g/l __ 

$$$$
