242
  Mrv0541 02231214322D          

 19 21  0  0  1  0            999 V2000
    1.6500   -0.5556    0.0000 Cl   0  0  0  0  0  0  0  0  0  0  0  0
    4.3467    0.7358    0.0000 O    0  0  0  0  0  0  0  0  0  0  0  0
    6.2852    1.6299    0.0000 O    0  0  0  0  0  0  0  0  0  0  0  0
    5.1323    2.7996    0.0000 O    0  0  0  0  0  0  0  0  0  0  0  0
    4.5741   -0.7167    0.0000 N    0  0  0  0  0  0  0  0  0  0  0  0
    4.5741   -2.0446    0.0000 N    0  0  0  0  0  0  0  0  0  0  0  0
    3.0791   -0.5556    0.0000 N    0  0  0  0  0  0  0  0  0  0  0  0
    2.3645   -1.7931    0.0000 N    0  0  0  0  0  0  0  0  0  0  0  0
    3.0791   -3.0306    0.0000 N    0  0  0  0  0  0  0  0  0  0  0  0
    4.8305    0.0675    0.0000 C    0  0  1  0  0  0  0  0  0  0  0  0
    5.6170    1.1461    0.0000 C    0  0  1  0  0  0  0  0  0  0  0  0
    5.6155    0.3211    0.0000 C    0  0  0  0  0  0  0  0  0  0  0  0
    4.8328    1.4024    0.0000 C    0  0  1  0  0  0  0  0  0  0  0  0
    4.5792    2.1875    0.0000 C    0  0  0  0  0  0  0  0  0  0  0  0
    3.7935   -0.9681    0.0000 C    0  0  0  0  0  0  0  0  0  0  0  0
    5.0556   -1.3806    0.0000 C    0  0  0  0  0  0  0  0  0  0  0  0
    3.7935   -1.7931    0.0000 C    0  0  0  0  0  0  0  0  0  0  0  0
    3.0791   -2.2056    0.0000 C    0  0  0  0  0  0  0  0  0  0  0  0
    2.3645   -0.9681    0.0000 C    0  0  0  0  0  0  0  0  0  0  0  0
  1 19  1  0  0  0  0
  2 10  1  0  0  0  0
  2 13  1  0  0  0  0
 11  3  1  1  0  0  0
  4 14  1  0  0  0  0
 10  5  1  6  0  0  0
  5 15  1  0  0  0  0
  5 16  1  0  0  0  0
  6 16  2  0  0  0  0
  6 17  1  0  0  0  0
  7 15  2  0  0  0  0
  7 19  1  0  0  0  0
  8 18  1  0  0  0  0
  8 19  2  0  0  0  0
  9 18  1  0  0  0  0
 10 12  1  0  0  0  0
 11 12  1  0  0  0  0
 11 13  1  0  0  0  0
 13 14  1  6  0  0  0
 15 17  1  0  0  0  0
 17 18  2  0  0  0  0
M  END
> <DRUGBANK_ID>
DB00242

> <DRUG_GROUPS>
approved; investigational

> <GENERIC_NAME>
Cladribine

> <SYNONYMS>
2-CdA; 2-Chloro-2'-deoxy-beta-adenosine; 2-Chloro-2'-deoxyadenosine; 2-Chlorodeoxyadenosine; 2ClAdo; CldAdo

> <BRANDS>
Leustatin; Litak; Movectro; Mylinax

> <CHEMICAL_FORMULA>
C10H12ClN5O3

> <MOLECULAR_WEIGHT>
285.687

> <EXACT_MASS>
285.062866982

> <IUPAC_NAME>
(2R,3S,5R)-5-(6-amino-2-chloro-9H-purin-9-yl)-2-(hydroxymethyl)oxolan-3-ol

> <IUPAC_TRADITIONAL_NAME>
cladribine

> <INCHI_IDENTIFIER>
InChI=1S/C10H12ClN5O3/c11-10-14-8(12)7-9(15-10)16(3-13-7)6-1-4(18)5(2-17)19-6/h3-6,17-18H,1-2H2,(H2,12,14,15)/t4-,5+,6+/m0/s1

> <INCHI_KEY>
InChIKey=PTOAARAWEBMLNO-KVQBGUIXSA-N

> <SMILES>
NC1=C2N=CN([C@H]3C[C@H](O)[C@@H](CO)O3)C2=NC(Cl)=N1

> <JCHEM_ACCEPTOR_COUNT>
7

> <JCHEM_DONOR_COUNT>
3

> <JCHEM_ACIDIC_PKA>
13.89

> <JCHEM_BASIC_PKA>
1.33

> <JCHEM_PHYSIOLOGICAL_CHARGE>
0

> <ALOGPS_LOGP>
-0.12

> <JCHEM_LOGP>
-0.28

> <ALOGPS_LOGS>
-1.6

> <JCHEM_POLARIZABILITY>
25.93

> <JCHEM_POLAR_SURFACE_AREA>
119.31

> <JCHEM_REFRACTIVITY>
67.18

> <JCHEM_ROTATABLE_BOND_COUNT>
2

> <ALOGPS_SOLUBILITY>
6.35e+00 g/l __ 

$$$$
