732
  Mrv0541 02231214582D          

 67 72  0  0  1  0            999 V2000
   18.9410   -2.9603    0.0000 O   0  0  0  0  0  0  0  0  0  0  0  0
    4.4635    5.3983    0.0000 O   0  0  0  0  0  0  0  0  0  0  0  0
   18.9410   -1.2704    0.0000 O   0  0  0  0  0  0  0  0  0  0  0  0
    5.9270    6.2432    0.0000 O   0  0  0  0  0  0  0  0  0  0  0  0
   12.8391   -1.0989    0.0000 O   0  0  0  0  0  0  0  0  0  0  0  0
    9.1265    1.0446    0.0000 O   0  0  0  0  0  0  0  0  0  0  0  0
   12.8391   -2.5279    0.0000 O   0  0  0  0  0  0  0  0  0  0  0  0
    7.8890    0.3301    0.0000 O   0  0  0  0  0  0  0  0  0  0  0  0
   17.4576   -6.2404    0.0000 O   0  0  0  0  0  0  0  0  0  0  0  0
    2.3645    2.4735    0.0000 O   0  0  0  0  0  0  0  0  0  0  0  0
   18.8866   -5.4154    0.0000 O   0  0  0  0  0  0  0  0  0  0  0  0
    2.3645    4.1235    0.0000 O   0  0  0  0  0  0  0  0  0  0  0  0
   15.3142   -2.5279    0.0000 N   0  3  0  0  0  0  0  0  0  0  0  0
    6.6515    2.4735    0.0000 N   0  3  0  0  0  0  0  0  0  0  0  0
   16.0286   -2.9404    0.0000 C   0  0  0  0  0  0  0  0  0  0  0  0
    5.9370    2.8860    0.0000 C   0  0  0  0  0  0  0  0  0  0  0  0
   15.3142   -1.7028    0.0000 C   0  0  0  0  0  0  0  0  0  0  0  0
    7.3659    2.8860    0.0000 C   0  0  0  0  0  0  0  0  0  0  0  0
   14.4891   -2.5279    0.0000 C   0  0  0  0  0  0  0  0  0  0  0  0
    7.0640    1.7590    0.0000 C   0  0  0  0  0  0  0  0  0  0  0  0
   16.7431   -2.5279    0.0000 C   0  0  0  0  0  0  0  0  0  0  0  0
    5.9370    3.7110    0.0000 C   0  0  0  0  0  0  0  0  0  0  0  0
   16.0286   -1.2903    0.0000 C   0  0  0  0  0  0  0  0  0  0  0  0
    7.3659    3.7110    0.0000 C   0  0  0  0  0  0  0  0  0  0  0  0
   14.9016   -3.2424    0.0000 C   0  0  0  0  0  0  0  0  0  0  0  0
    6.2390    1.7590    0.0000 C   0  0  0  0  0  0  0  0  0  0  0  0
   16.0286   -3.7654    0.0000 C   0  0  0  0  0  0  0  0  0  0  0  0
    5.2224    2.4735    0.0000 C   0  0  0  0  0  0  0  0  0  0  0  0
   16.7431   -1.7028    0.0000 C   0  0  0  0  0  0  0  0  0  0  0  0
    6.6515    4.1235    0.0000 C   0  0  0  0  0  0  0  0  0  0  0  0
   14.0766   -1.8134    0.0000 C   0  0  0  0  0  0  0  0  0  0  0  0
    7.8890    1.7590    0.0000 C   0  0  0  0  0  0  0  0  0  0  0  0
   17.4806   -2.9690    0.0000 C   0  0  0  0  0  0  0  0  0  0  0  0
    5.1862    4.1292    0.0000 C   0  0  0  0  0  0  0  0  0  0  0  0
   16.7431   -4.1779    0.0000 C   0  0  0  0  0  0  0  0  0  0  0  0
    4.5080    2.8860    0.0000 C   0  0  0  0  0  0  0  0  0  0  0  0
   17.4806   -1.2618    0.0000 C   0  0  0  0  0  0  0  0  0  0  0  0
    6.6647    4.9828    0.0000 C   0  0  0  0  0  0  0  0  0  0  0  0
   18.2281   -2.5451    0.0000 C   0  0  0  0  0  0  0  0  0  0  0  0
    5.1795    4.9886    0.0000 C   0  0  0  0  0  0  0  0  0  0  0  0
   18.2281   -1.6857    0.0000 C   0  0  0  0  0  0  0  0  0  0  0  0
    5.9238    5.4182    0.0000 C   0  0  0  0  0  0  0  0  0  0  0  0
   13.2516   -1.8134    0.0000 C   0  0  0  0  0  0  0  0  0  0  0  0
    8.3015    1.0446    0.0000 C   0  0  0  0  0  0  0  0  0  0  0  0
   16.7431   -5.0029    0.0000 C   0  0  0  0  0  0  0  0  0  0  0  0
    3.7935    2.4735    0.0000 C   0  0  0  0  0  0  0  0  0  0  0  0
   17.4576   -3.7654    0.0000 C   0  0  0  0  0  0  0  0  0  0  0  0
    4.5080    3.7110    0.0000 C   0  0  0  0  0  0  0  0  0  0  0  0
   17.4576   -5.4154    0.0000 C   0  0  0  0  0  0  0  0  0  0  0  0
    3.0791    2.8860    0.0000 C   0  0  0  0  0  0  0  0  0  0  0  0
   18.1721   -4.1779    0.0000 C   0  0  0  0  0  0  0  0  0  0  0  0
    3.7935    4.1235    0.0000 C   0  0  0  0  0  0  0  0  0  0  0  0
   18.1721   -5.0029    0.0000 C   0  0  0  0  0  0  0  0  0  0  0  0
    3.0791    3.7110    0.0000 C   0  0  0  0  0  0  0  0  0  0  0  0
   12.0141   -1.0989    0.0000 C   0  0  0  0  0  0  0  0  0  0  0  0
    9.5390    0.3301    0.0000 C   0  0  0  0  0  0  0  0  0  0  0  0
   11.6016   -0.3845    0.0000 C   0  0  0  0  0  0  0  0  0  0  0  0
   10.3640    0.3301    0.0000 C   0  0  0  0  0  0  0  0  0  0  0  0
   19.6571   -2.5505    0.0000 C   0  0  0  0  0  0  0  0  0  0  0  0
    4.4603    6.2233    0.0000 C   0  0  0  0  0  0  0  0  0  0  0  0
   10.7766   -0.3845    0.0000 C   0  0  0  0  0  0  0  0  0  0  0  0
   18.9379   -0.4454    0.0000 C   0  0  0  0  0  0  0  0  0  0  0  0
    6.6430    6.6529    0.0000 C   0  0  0  0  0  0  0  0  0  0  0  0
   16.7431   -6.6529    0.0000 C   0  0  0  0  0  0  0  0  0  0  0  0
    2.3645    1.6485    0.0000 C   0  0  0  0  0  0  0  0  0  0  0  0
   18.8866   -6.2404    0.0000 C   0  0  0  0  0  0  0  0  0  0  0  0
    1.6500    3.7110    0.0000 C   0  0  0  0  0  0  0  0  0  0  0  0
  1 39  1  0  0  0  0
  1 59  1  0  0  0  0
  2 40  1  0  0  0  0
  2 60  1  0  0  0  0
  3 41  1  0  0  0  0
  3 62  1  0  0  0  0
  4 42  1  0  0  0  0
  4 63  1  0  0  0  0
  5 43  1  0  0  0  0
  5 55  1  0  0  0  0
  6 44  1  0  0  0  0
  6 56  1  0  0  0  0
  7 43  2  0  0  0  0
  8 44  2  0  0  0  0
  9 49  1  0  0  0  0
  9 64  1  0  0  0  0
 10 50  1  0  0  0  0
 10 65  1  0  0  0  0
 11 53  1  0  0  0  0
 11 66  1  0  0  0  0
 12 54  1  0  0  0  0
 12 67  1  0  0  0  0
 13 15  1  0  0  0  0
 13 17  1  0  0  0  0
 13 19  1  0  0  0  0
 13 25  1  0  0  0  0
 14 16  1  0  0  0  0
 14 18  1  0  0  0  0
 14 20  1  0  0  0  0
 14 26  1  0  0  0  0
 15 21  1  0  0  0  0
 15 27  1  0  0  0  0
 16 22  1  0  0  0  0
 16 28  1  0  0  0  0
 17 23  1  0  0  0  0
 18 24  1  0  0  0  0
 19 31  1  0  0  0  0
 20 32  1  0  0  0  0
 21 29  1  0  0  0  0
 21 33  2  0  0  0  0
 22 30  1  0  0  0  0
 22 34  2  0  0  0  0
 23 29  1  0  0  0  0
 24 30  1  0  0  0  0
 27 35  1  0  0  0  0
 28 36  1  0  0  0  0
 29 37  2  0  0  0  0
 30 38  2  0  0  0  0
 31 43  1  0  0  0  0
 32 44  1  0  0  0  0
 33 39  1  0  0  0  0
 34 40  1  0  0  0  0
 35 45  2  0  0  0  0
 35 47  1  0  0  0  0
 36 46  2  0  0  0  0
 36 48  1  0  0  0  0
 37 41  1  0  0  0  0
 38 42  1  0  0  0  0
 39 41  2  0  0  0  0
 40 42  2  0  0  0  0
 45 49  1  0  0  0  0
 46 50  1  0  0  0  0
 47 51  2  0  0  0  0
 48 52  2  0  0  0  0
 49 53  2  0  0  0  0
 50 54  2  0  0  0  0
 51 53  1  0  0  0  0
 52 54  1  0  0  0  0
 55 57  1  0  0  0  0
 56 58  1  0  0  0  0
 57 61  1  0  0  0  0
 58 61  1  0  0  0  0
M  END
> <DRUGBANK_ID>
DB00732

> <DRUG_GROUPS>
approved

> <GENERIC_NAME>
Atracurium

> <CHEMICAL_FORMULA>
C53H72N2O12

> <MOLECULAR_WEIGHT>
929.145

> <EXACT_MASS>
928.508525778

> <IUPAC_NAME>
1-[(3,4-dimethoxyphenyl)methyl]-2-[3-({5-[(3-{1-[(3,4-dimethoxyphenyl)methyl]-6,7-dimethoxy-2-methyl-1,2,3,4-tetrahydroisoquinolin-2-ium-2-yl}propanoyl)oxy]pentyl}oxy)-3-oxopropyl]-6,7-dimethoxy-2-methyl-1,2,3,4-tetrahydroisoquinolin-2-ium

> <IUPAC_TRADITIONAL_NAME>
atracurium

> <INCHI_IDENTIFIER>
InChI=1S/C53H72N2O12/c1-54(22-18-38-32-48(62-7)50(64-9)34-40(38)42(54)28-36-14-16-44(58-3)46(30-36)60-5)24-20-52(56)66-26-12-11-13-27-67-53(57)21-25-55(2)23-19-39-33-49(63-8)51(65-10)35-41(39)43(55)29-37-15-17-45(59-4)47(31-37)61-6/h14-17,30-35,42-43H,11-13,18-29H2,1-10H3/q+2

> <INCHI_KEY>
InChIKey=YXSLJKQTIDHPOT-UHFFFAOYSA-N

> <SMILES>
COC1=C(OC)C=C(CC2C3=CC(OC)=C(OC)C=C3CC[N+]2(C)CCC(=O)OCCCCCOC(=O)CC[N+]2(C)CCC3=CC(OC)=C(OC)C=C3C2CC2=CC(OC)=C(OC)C=C2)C=C1

> <JCHEM_ACCEPTOR_COUNT>
10

> <JCHEM_DONOR_COUNT>
0

> <JCHEM_ACIDIC_PKA>
19.02

> <JCHEM_BASIC_PKA>
-4.1

> <JCHEM_PHYSIOLOGICAL_CHARGE>
2

> <ALOGPS_LOGP>
3.41

> <JCHEM_LOGP>
-0.96

> <ALOGPS_LOGS>
-7.6

> <JCHEM_POLARIZABILITY>
104.67

> <JCHEM_POLAR_SURFACE_AREA>
126.44

> <JCHEM_REFRACTIVITY>
280.68

> <JCHEM_ROTATABLE_BOND_COUNT>
26

> <ALOGPS_SOLUBILITY>
2.32e-05 g/l __ 

$$$$
