 
  Mrv0541 02231214412D          
 
 37 40  0  0  1  0            999 V2000
    3.0938  -13.6125    0.0000 C    0  0  0  0  0  0  0  0  0  0  0  0
    3.0938  -14.4375    0.0000 C    0  0  0  0  0  0  0  0  0  0  0  0
    3.8082  -14.8500    0.0000 C    0  0  0  0  0  0  0  0  0  0  0  0
    4.5227  -14.4375    0.0000 C    0  0  0  0  0  0  0  0  0  0  0  0
    4.5227  -13.6125    0.0000 C    0  0  0  0  0  0  0  0  0  0  0  0
    3.8082  -13.2000    0.0000 C    0  0  0  0  0  0  0  0  0  0  0  0
    5.2372  -14.8500    0.0000 C    0  0  0  0  0  0  0  0  0  0  0  0
    5.9516  -14.4375    0.0000 C    0  0  0  0  0  0  0  0  0  0  0  0
    5.9516  -13.6125    0.0000 C    0  0  1  0  0  0  0  0  0  0  0  0
    5.2372  -13.2000    0.0000 C    0  0  1  0  0  0  0  0  0  0  0  0
    6.6661  -14.8500    0.0000 C    0  0  0  0  0  0  0  0  0  0  0  0
    7.3806  -14.4375    0.0000 C    0  0  1  0  0  0  0  0  0  0  0  0
    7.3806  -13.6125    0.0000 C    0  0  1  0  0  0  0  0  0  0  0  0
    6.6661  -13.2000    0.0000 C    0  0  0  0  0  0  0  0  0  0  0  0
    8.0950  -14.8500    0.0000 C    0  0  0  0  0  0  0  0  0  0  0  0
    8.8095  -14.4375    0.0000 C    0  0  0  0  0  0  0  0  0  0  0  0
    8.8095  -13.6125    0.0000 C    0  0  0  0  0  0  0  0  0  0  0  0
    8.0950  -13.2000    0.0000 C    0  0  1  0  0  0  0  0  0  0  0  0
    3.8082  -12.3751    0.0000 Cl   0  0  0  0  0  0  0  0  0  0  0  0
    3.8082  -15.6749    0.0000 O    0  0  0  0  0  0  0  0  0  0  0  0
    5.2372  -15.6750    0.0000 O    0  0  0  0  0  0  0  0  0  0  0  0
    6.6661  -15.6748    0.0000 O    0  0  0  0  0  0  0  0  0  0  0  0
    8.0950  -15.6749    0.0000 O    0  0  0  0  0  0  0  0  0  0  0  0
    9.5374  -14.8579    0.0000 C    0  0  0  0  0  0  0  0  0  0  0  0
   10.2488  -14.4473    0.0000 N    0  0  0  0  0  0  0  0  0  0  0  0
   10.9449  -14.8494    0.0000 C    0  0  0  0  0  0  0  0  0  0  0  0
   11.6488  -14.4429    0.0000 O    0  0  0  0  0  0  0  0  0  0  0  0
    9.5371  -15.6749    0.0000 O    0  0  0  0  0  0  0  0  0  0  0  0
    9.5374  -13.1921    0.0000 O    0  0  0  0  0  0  0  0  0  0  0  0
    5.2372  -12.3750    0.0000 C    0  0  0  0  0  0  0  0  0  0  0  0
    4.5239  -12.7882    0.0000 O    0  0  0  0  0  0  0  0  0  0  0  0
    5.9516  -12.7876    0.0000 H    0  0  0  0  0  0  0  0  0  0  0  0
    7.3806  -12.7875    0.0000 H    0  0  0  0  0  0  0  0  0  0  0  0
    8.0950  -12.3751    0.0000 N    0  0  0  0  0  0  0  0  0  0  0  0
    7.3730  -11.9581    0.0000 C    0  0  0  0  0  0  0  0  0  0  0  0
    8.8020  -11.9669    0.0000 C    0  0  0  0  0  0  0  0  0  0  0  0
    7.3806  -15.2625    0.0000 O    0  0  0  0  0  0  0  0  0  0  0  0
  1  2  2  0  0  0  0
  2  3  1  0  0  0  0
  3  4  2  0  0  0  0
  4  5  1  0  0  0  0
  5  6  2  0  0  0  0
  1  6  1  0  0  0  0
  4  7  1  0  0  0  0
  7  8  1  0  0  0  0
  8  9  1  0  0  0  0
  9 10  1  0  0  0  0
  5 10  1  0  0  0  0
  8 11  2  0  0  0  0
 11 12  1  0  0  0  0
 12 13  1  0  0  0  0
 13 14  1  0  0  0  0
  9 14  1  0  0  0  0
 12 15  1  0  0  0  0
 15 16  1  0  0  0  0
 16 17  2  0  0  0  0
 17 18  1  0  0  0  0
 13 18  1  0  0  0  0
  6 19  1  0  0  0  0
  3 20  1  0  0  0  0
  7 21  2  0  0  0  0
 11 22  1  0  0  0  0
 15 23  2  0  0  0  0
 16 24  1  0  0  0  0
 24 25  1  0  0  0  0
 25 26  1  0  0  0  0
 26 27  1  0  0  0  0
 24 28  2  0  0  0  0
 17 29  1  0  0  0  0
 10 30  1  6  0  0  0
 10 31  1  1  0  0  0
  9 32  1  6  0  0  0
 13 33  1  6  0  0  0
 18 34  1  6  0  0  0
 34 35  1  0  0  0  0
 34 36  1  0  0  0  0
 12 37  1  6  0  0  0
M  END
> <DRUGBANK_ID>
DB00453

> <DRUG_GROUPS>
approved

> <GENERIC_NAME>
Clomocycline

> <SYNONYMS>
Chlormethylenecycline; Clomociclina; Clomocyclinum

> <CHEMICAL_FORMULA>
C23H25ClN2O9

> <MOLECULAR_WEIGHT>
508.906

> <EXACT_MASS>
508.124858115

> <IUPAC_NAME>
(4S,4aS,5aS,6S,12aS)-7-chloro-4-(dimethylamino)-3,6,10,12,12a-pentahydroxy-N-(hydroxymethyl)-6-methyl-1,11-dioxo-1,4,4a,5,5a,6,11,12a-octahydrotetracene-2-carboxamide

> <IUPAC_TRADITIONAL_NAME>
clomocycline

> <INCHI_IDENTIFIER>
InChI=1S/C23H25ClN2O9/c1-22(34)8-6-9-16(26(2)3)18(30)14(21(33)25-7-27)20(32)23(9,35)19(31)12(8)17(29)13-11(28)5-4-10(24)15(13)22/h4-5,8-9,16,27-28,30-31,34-35H,6-7H2,1-3H3,(H,25,33)/t8-,9-,16-,22-,23-/m0/s1

> <INCHI_KEY>
InChIKey=GJGDLRSSCNAKGL-KMVLDZISSA-N

> <SMILES>
[H][C@@]12C[C@@]3([H])C(=C(O)[C@]1(O)C(=O)C(C(=O)NCO)=C(O)[C@H]2N(C)C)C(=O)C1=C(O)C=CC(Cl)=C1[C@@]3(C)O

> <JCHEM_ACCEPTOR_COUNT>
10

> <JCHEM_DONOR_COUNT>
7

> <JCHEM_ACIDIC_PKA>
0.013

> <JCHEM_BASIC_PKA>
8.23

> <JCHEM_PHYSIOLOGICAL_CHARGE>
-1

> <ALOGPS_LOGP>
-0.45

> <JCHEM_LOGP>
-3.3

> <ALOGPS_LOGS>
-2.5

> <JCHEM_POLARIZABILITY>
49.29

> <JCHEM_POLAR_SURFACE_AREA>
187.86

> <JCHEM_REFRACTIVITY>
124.99

> <JCHEM_ROTATABLE_BOND_COUNT>
3

> <ALOGPS_SOLUBILITY>
1.77e+00 g/l __ 

$$$$
