961
  Mrv0541 02231215082D          

 18 19  0  0  1  0            999 V2000
    4.5080   -0.2063    0.0000 O   0  0  0  0  0  0  0  0  0  0  0  0
    3.0791    1.4438    0.0000 N   0  0  0  0  0  0  0  0  0  0  0  0
    3.0791   -0.2063    0.0000 N   0  0  0  0  0  0  0  0  0  0  0  0
    3.7935    1.0313    0.0000 C   0  0  0  0  0  0  0  0  0  0  0  0
    4.5080    1.4438    0.0000 C   0  0  0  0  0  0  0  0  0  0  0  0
    4.5080    2.2688    0.0000 C   0  0  0  0  0  0  0  0  0  0  0  0
    3.7935    2.6813    0.0000 C   0  0  0  0  0  0  0  0  0  0  0  0
    3.0791    2.2688    0.0000 C   0  0  0  0  0  0  0  0  0  0  0  0
    3.7935    0.2063    0.0000 C   0  0  0  0  0  0  0  0  0  0  0  0
    2.3645    1.0313    0.0000 C   0  0  0  0  0  0  0  0  0  0  0  0
    3.0791   -1.0313    0.0000 C   0  0  0  0  0  0  0  0  0  0  0  0
    3.7935   -1.4438    0.0000 C   0  0  0  0  0  0  0  0  0  0  0  0
    2.3645   -1.4438    0.0000 C   0  0  0  0  0  0  0  0  0  0  0  0
    3.7935   -2.2688    0.0000 C   0  0  0  0  0  0  0  0  0  0  0  0
    2.3645   -2.2688    0.0000 C   0  0  0  0  0  0  0  0  0  0  0  0
    4.5080   -1.0313    0.0000 C   0  0  0  0  0  0  0  0  0  0  0  0
    1.6500   -1.0313    0.0000 C   0  0  0  0  0  0  0  0  0  0  0  0
    3.0791   -2.6813    0.0000 C   0  0  0  0  0  0  0  0  0  0  0  0
  1  9  2  0  0  0  0
  2  4  1  0  0  0  0
  2  8  1  0  0  0  0
  2 10  1  0  0  0  0
  3  9  1  0  0  0  0
  3 11  1  0  0  0  0
  4  5  1  0  0  0  0
  4  9  1  0  0  0  0
  5  6  1  0  0  0  0
  6  7  1  0  0  0  0
  7  8  1  0  0  0  0
 11 12  2  0  0  0  0
 11 13  1  0  0  0  0
 12 14  1  0  0  0  0
 12 16  1  0  0  0  0
 13 15  2  0  0  0  0
 13 17  1  0  0  0  0
 14 18  2  0  0  0  0
 15 18  1  0  0  0  0
M  END
> <DRUGBANK_ID>
DB00961

> <DRUG_GROUPS>
approved

> <GENERIC_NAME>
Mepivacaine

> <SYNONYMS>
1-methyl-2',6'-pipecoloxylidide; DL-Mepivacaine; Mepivacaina; Mepivacainum; N-(2,6-Dimethylphenyl)-1-methyl-2-piperidinecarboxamide; N-(2,6-Dimethylphenyl)-1-methylpiperidine-2-carboxamide

> <SALTS>
Mepivacaine Hydrochloride

> <BRANDS>
Carbocaine; Polocaine; Scandicaine; Scandonest Plain

> <CHEMICAL_FORMULA>
C15H22N2O

> <MOLECULAR_WEIGHT>
246.348

> <EXACT_MASS>
246.173213336

> <IUPAC_NAME>
N-(2,6-dimethylphenyl)-1-methylpiperidine-2-carboxamide

> <IUPAC_TRADITIONAL_NAME>
mepivacaine

> <INCHI_IDENTIFIER>
InChI=1S/C15H22N2O/c1-11-7-6-8-12(2)14(11)16-15(18)13-9-4-5-10-17(13)3/h6-8,13H,4-5,9-10H2,1-3H3,(H,16,18)

> <INCHI_KEY>
InChIKey=INWLQCZOYSRPNW-UHFFFAOYSA-N

> <SMILES>
CN1CCCCC1C(=O)NC1=C(C)C=CC=C1C

> <JCHEM_ACCEPTOR_COUNT>
2

> <JCHEM_DONOR_COUNT>
1

> <JCHEM_ACIDIC_PKA>
13.62

> <JCHEM_BASIC_PKA>
7.25

> <JCHEM_PHYSIOLOGICAL_CHARGE>
1

> <ALOGPS_LOGP>
2.16

> <JCHEM_LOGP>
3.19

> <ALOGPS_LOGS>
-2.6

> <JCHEM_POLARIZABILITY>
28.61

> <JCHEM_POLAR_SURFACE_AREA>
32.34

> <JCHEM_REFRACTIVITY>
76.32

> <JCHEM_ROTATABLE_BOND_COUNT>
2

> <ALOGPS_SOLUBILITY>
6.21e-01 g/l __ 

$$$$
