906
  Mrv0541 02231215052D          

 25 27  0  0  1  0            999 V2000
    6.0232   -0.3227    0.0000 S   0  0  0  0  0  0  0  0  0  0  0  0
    5.8899   -2.8656    0.0000 S   0  0  0  0  0  0  0  0  0  0  0  0
    2.3645    3.3945    0.0000 O   0  0  0  0  0  0  0  0  0  0  0  0
    1.6500    2.1569    0.0000 O   0  0  0  0  0  0  0  0  0  0  0  0
    3.7935    0.9194    0.0000 N   0  0  0  0  0  0  0  0  0  0  0  0
    3.0791    2.1569    0.0000 C   0  0  1  0  0  0  0  0  0  0  0  0
    3.0791    1.3319    0.0000 C   0  0  0  0  0  0  0  0  0  0  0  0
    3.7935    2.5694    0.0000 C   0  0  0  0  0  0  0  0  0  0  0  0
    4.5080    2.1569    0.0000 C   0  0  0  0  0  0  0  0  0  0  0  0
    4.5080    1.3319    0.0000 C   0  0  0  0  0  0  0  0  0  0  0  0
    3.7935    0.0944    0.0000 C   0  0  0  0  0  0  0  0  0  0  0  0
    4.5080   -0.3181    0.0000 C   0  0  0  0  0  0  0  0  0  0  0  0
    2.3645    2.5694    0.0000 C   0  0  0  0  0  0  0  0  0  0  0  0
    4.5080   -1.1431    0.0000 C   0  0  0  0  0  0  0  0  0  0  0  0
    5.2224   -1.5557    0.0000 C   0  0  0  0  0  0  0  0  0  0  0  0
    5.9370   -1.1431    0.0000 C   0  0  0  0  0  0  0  0  0  0  0  0
    5.2224   -2.3807    0.0000 C   0  0  0  0  0  0  0  0  0  0  0  0
    6.6906   -1.4787    0.0000 C   0  0  0  0  0  0  0  0  0  0  0  0
    4.5550   -2.8656    0.0000 C   0  0  0  0  0  0  0  0  0  0  0  0
    7.2427   -0.8656    0.0000 C   0  0  0  0  0  0  0  0  0  0  0  0
    4.8099   -3.6502    0.0000 C   0  0  0  0  0  0  0  0  0  0  0  0
    6.8622   -2.2857    0.0000 C   0  0  0  0  0  0  0  0  0  0  0  0
    3.7704   -2.6106    0.0000 C   0  0  0  0  0  0  0  0  0  0  0  0
    6.8302   -0.1511    0.0000 C   0  0  0  0  0  0  0  0  0  0  0  0
    5.6350   -3.6502    0.0000 C   0  0  0  0  0  0  0  0  0  0  0  0
  1 16  1  0  0  0  0
  1 24  1  0  0  0  0
  2 17  1  0  0  0  0
  2 25  1  0  0  0  0
  3 13  1  0  0  0  0
  4 13  2  0  0  0  0
  5  7  1  0  0  0  0
  5 10  1  0  0  0  0
  5 11  1  0  0  0  0
  6  7  1  0  0  0  0
  6  8  1  0  0  0  0
  6 13  1  6  0  0  0
  8  9  1  0  0  0  0
  9 10  1  0  0  0  0
 11 12  1  0  0  0  0
 12 14  1  0  0  0  0
 14 15  2  0  0  0  0
 15 16  1  0  0  0  0
 15 17  1  0  0  0  0
 16 18  2  0  0  0  0
 17 19  2  0  0  0  0
 18 20  1  0  0  0  0
 18 22  1  0  0  0  0
 19 21  1  0  0  0  0
 19 23  1  0  0  0  0
 20 24  2  0  0  0  0
 21 25  2  0  0  0  0
M  END
> <DRUGBANK_ID>
DB00906

> <DRUG_GROUPS>
approved

> <GENERIC_NAME>
Tiagabine

> <SYNONYMS>
Tiagabina; Tiagabinum

> <BRANDS>


> <CHEMICAL_FORMULA>
C20H25NO2S2

> <MOLECULAR_WEIGHT>
375.548

> <EXACT_MASS>
375.132670429

> <IUPAC_NAME>
(3R)-1-[4,4-bis(3-methylthiophen-2-yl)but-3-en-1-yl]piperidine-3-carboxylic acid

> <IUPAC_TRADITIONAL_NAME>
tiagabine

> <INCHI_IDENTIFIER>
InChI=1S/C20H25NO2S2/c1-14-7-11-24-18(14)17(19-15(2)8-12-25-19)6-4-10-21-9-3-5-16(13-21)20(22)23/h6-8,11-12,16H,3-5,9-10,13H2,1-2H3,(H,22,23)/t16-/m1/s1

> <INCHI_KEY>
InChIKey=PBJUNZJWGZTSKL-MRXNPFEDSA-N

> <SMILES>
CC1=C(SC=C1)C(=CCCN1CCC[C@H](C1)C(O)=O)C1=C(C)C=CS1

> <JCHEM_ACCEPTOR_COUNT>
3

> <JCHEM_DONOR_COUNT>
1

> <JCHEM_ACIDIC_PKA>
4.14

> <JCHEM_BASIC_PKA>
9.26

> <JCHEM_PHYSIOLOGICAL_CHARGE>
0

> <ALOGPS_LOGP>
4.98

> <JCHEM_LOGP>
2.6

> <ALOGPS_LOGS>
-4.2

> <JCHEM_POLARIZABILITY>
41.7

> <JCHEM_POLAR_SURFACE_AREA>
40.54

> <JCHEM_REFRACTIVITY>
115.32

> <JCHEM_ROTATABLE_BOND_COUNT>
6

> <ALOGPS_SOLUBILITY>
2.11e-02 g/l __ 

$$$$
