676
  Mrv0541 02231214552D          

 16 17  0  0  0  0            999 V2000
    3.0791    0.2063    0.0000 O   0  0  0  0  0  0  0  0  0  0  0  0
    1.6500    0.2063    0.0000 O   0  0  0  0  0  0  0  0  0  0  0  0
    3.7935    1.4438    0.0000 C   0  0  0  0  0  0  0  0  0  0  0  0
    3.0791    1.0313    0.0000 C   0  0  0  0  0  0  0  0  0  0  0  0
    2.3645   -1.0313    0.0000 C   0  0  0  0  0  0  0  0  0  0  0  0
    3.7935    2.2688    0.0000 C   0  0  0  0  0  0  0  0  0  0  0  0
    4.5080    1.0313    0.0000 C   0  0  0  0  0  0  0  0  0  0  0  0
    2.3645   -0.2063    0.0000 C   0  0  0  0  0  0  0  0  0  0  0  0
    4.5080    2.6813    0.0000 C   0  0  0  0  0  0  0  0  0  0  0  0
    5.2224    1.4438    0.0000 C   0  0  0  0  0  0  0  0  0  0  0  0
    3.0791   -1.4438    0.0000 C   0  0  0  0  0  0  0  0  0  0  0  0
    1.6500   -1.4438    0.0000 C   0  0  0  0  0  0  0  0  0  0  0  0
    5.2224    2.2688    0.0000 C   0  0  0  0  0  0  0  0  0  0  0  0
    3.0791   -2.2688    0.0000 C   0  0  0  0  0  0  0  0  0  0  0  0
    1.6500   -2.2688    0.0000 C   0  0  0  0  0  0  0  0  0  0  0  0
    2.3645   -2.6813    0.0000 C   0  0  0  0  0  0  0  0  0  0  0  0
  1  4  1  0  0  0  0
  1  8  1  0  0  0  0
  2  8  2  0  0  0  0
  3  4  1  0  0  0  0
  3  6  2  0  0  0  0
  3  7  1  0  0  0  0
  5  8  1  0  0  0  0
  5 11  2  0  0  0  0
  5 12  1  0  0  0  0
  6  9  1  0  0  0  0
  7 10  2  0  0  0  0
  9 13  2  0  0  0  0
 10 13  1  0  0  0  0
 11 14  1  0  0  0  0
 12 15  2  0  0  0  0
 14 16  2  0  0  0  0
 15 16  1  0  0  0  0
M  END
> <DRUGBANK_ID>
DB00676

> <DRUG_GROUPS>
approved

> <GENERIC_NAME>
Benzyl Benzoate

> <SYNONYMS>
Acarobenzyl; Benzevan; Benzoate de benzyle; Benzoesäurebenzylester; Benzyl benzoat; Benzylis benzoas; Phenylmethyl benzoate; Spasmodine

> <BRANDS>
Acaril-S; Acarilbial; Acarsan; Acil; Antiscabiosum; Antiscabiosum für Kinder; Ascabiol; Ascalol; B.B. Lotion; BE BO; Benzalcor; Benzilbenzoat; Benzogal; Benzotal; Bezo; Finsarna; Gensarna; Miticocan; Novoscabin; Opele; Pharcobenzyl; Sanasar; Saniscabis; Scabicon; Scabiex; Scabin; Scabisol; Scabitox; Tekoce; Zilaben

> <CHEMICAL_FORMULA>
C14H12O2

> <MOLECULAR_WEIGHT>
212.2439

> <EXACT_MASS>
212.083729628

> <IUPAC_NAME>
benzyl benzoate

> <IUPAC_TRADITIONAL_NAME>
benzyl benzoate

> <INCHI_IDENTIFIER>
InChI=1S/C14H12O2/c15-14(13-9-5-2-6-10-13)16-11-12-7-3-1-4-8-12/h1-10H,11H2

> <INCHI_KEY>
InChIKey=SESFRYSPDFLNCH-UHFFFAOYSA-N

> <SMILES>
O=C(OCC1=CC=CC=C1)C1=CC=CC=C1

> <JCHEM_ACCEPTOR_COUNT>
1

> <JCHEM_DONOR_COUNT>
0

> <JCHEM_BASIC_PKA>
-6.9

> <JCHEM_PHYSIOLOGICAL_CHARGE>
0

> <ALOGPS_LOGP>
3.43

> <JCHEM_LOGP>
3.7

> <ALOGPS_LOGS>
-4

> <JCHEM_POLARIZABILITY>
22.85

> <JCHEM_POLAR_SURFACE_AREA>
26.3

> <JCHEM_REFRACTIVITY>
62.7

> <JCHEM_ROTATABLE_BOND_COUNT>
4

> <ALOGPS_SOLUBILITY>
1.98e-02 g/l __ 

$$$$
