295
  Mrv0541 02231214352D          

 24 28  0  0  1  0            999 V2000
    1.9356    0.0458    0.0000 O   0  0  0  0  0  0  0  0  0  0  0  0
    1.7349   -2.0838    0.0000 O   0  0  0  0  0  0  0  0  0  0  0  0
    1.7349    2.0838    0.0000 O   0  0  0  0  0  0  0  0  0  0  0  0
    5.3440   -0.8250    0.0000 N   0  0  0  0  0  0  0  0  0  0  0  0
    3.2006   -0.4125    0.0000 C   0  0  1  0  0  0  0  0  0  0  0  0
    3.9151   -0.8250    0.0000 C   0  0  2  0  0  0  0  0  0  0  0  0
    4.6296   -0.4125    0.0000 C   0  0  1  0  0  0  0  0  0  0  0  0
    2.4861   -0.8250    0.0000 C   0  0  2  0  0  0  0  0  0  0  0  0
    3.6773    0.1925    0.0000 C   0  0  0  0  0  0  0  0  0  0  0  0
    3.2006    0.4125    0.0000 C   0  0  0  0  0  0  0  0  0  0  0  0
    4.6296    0.4125    0.0000 C   0  0  0  0  0  0  0  0  0  0  0  0
    4.8506    0.1925    0.0000 C   0  0  0  0  0  0  0  0  0  0  0  0
    3.9151    0.8250    0.0000 C   0  0  0  0  0  0  0  0  0  0  0  0
    2.4861   -1.6501    0.0000 C   0  0  2  0  0  0  0  0  0  0  0  0
    3.9151   -1.6501    0.0000 C   0  0  0  0  0  0  0  0  0  0  0  0
    2.4861    0.8250    0.0000 C   0  0  0  0  0  0  0  0  0  0  0  0
    3.2006   -2.0625    0.0000 C   0  0  0  0  0  0  0  0  0  0  0  0
    5.9350   -1.4601    0.0000 C   0  0  0  0  0  0  0  0  0  0  0  0
    3.9151    1.6500    0.0000 C   0  0  0  0  0  0  0  0  0  0  0  0
    2.4861    1.6500    0.0000 C   0  0  0  0  0  0  0  0  0  0  0  0
    3.2006    2.0625    0.0000 C   0  0  0  0  0  0  0  0  0  0  0  0
    4.3612   -1.3566    0.0000 H   0  0  0  0  0  0  0  0  0  0  0  0
    4.8675   -1.0645    0.0000 H   0  0  0  0  0  0  0  0  0  0  0  0
    1.8196   -1.0180    0.0000 H   0  0  0  0  0  0  0  0  0  0  0  0
  1  8  1  0  0  0  0
  1 16  1  0  0  0  0
 14  2  1  6  0  0  0
  3 20  1  0  0  0  0
  4  7  1  0  0  0  0
  4 12  1  0  0  0  0
  4 18  1  0  0  0  0
  5  6  1  0  0  0  0
  5  8  1  0  0  0  0
  5  9  1  1  0  0  0
  5 10  1  0  0  0  0
  6  7  1  0  0  0  0
  6 15  1  0  0  0  0
  6 22  1  1  0  0  0
  7 11  1  0  0  0  0
  7 23  1  6  0  0  0
  8 14  1  0  0  0  0
  8 24  1  1  0  0  0
  9 12  1  0  0  0  0
 10 13  2  0  0  0  0
 10 16  1  0  0  0  0
 11 13  1  0  0  0  0
 13 19  1  0  0  0  0
 14 17  1  0  0  0  0
 15 17  2  0  0  0  0
 16 20  2  0  0  0  0
 19 21  2  0  0  0  0
 20 21  1  0  0  0  0
M  END
> <DRUGBANK_ID>
DB00295

> <DRUG_GROUPS>
approved; investigational

> <GENERIC_NAME>
Morphine

> <SYNONYMS>
(âˆ’)-morphine; Morphin; Morphinum

> <SALTS>
Morphine Sulfate 

> <BRANDS>
Avinza; Kadian; Kapanol; MS Contin; MSIR; Oramorph; Roxanol

> <CHEMICAL_FORMULA>
C17H19NO3

> <MOLECULAR_WEIGHT>
285.3377

> <EXACT_MASS>
285.136493479

> <IUPAC_NAME>
(1S,5R,13R,14S,17R)-4-methyl-12-oxa-4-azapentacyclo[9.6.1.0^{1,13}.0^{5,17}.0^{7,18}]octadeca-7(18),8,10,15-tetraene-10,14-diol

> <IUPAC_TRADITIONAL_NAME>
morphine

> <INCHI_IDENTIFIER>
InChI=1S/C17H19NO3/c1-18-7-6-17-10-3-5-13(20)16(17)21-15-12(19)4-2-9(14(15)17)8-11(10)18/h2-5,10-11,13,16,19-20H,6-8H2,1H3/t10-,11+,13-,16-,17-/m0/s1

> <INCHI_KEY>
InChIKey=BQJCRHHNABKAKU-KBQPJGBKSA-N

> <SMILES>
[H][C@@]12OC3=C(O)C=CC4=C3[C@@]11CCN(C)[C@]([H])(C4)[C@]1([H])C=C[C@@H]2O

> <JCHEM_ACCEPTOR_COUNT>
4

> <JCHEM_DONOR_COUNT>
2

> <JCHEM_ACIDIC_PKA>
10.26

> <JCHEM_BASIC_PKA>
9.12

> <JCHEM_PHYSIOLOGICAL_CHARGE>
1

> <ALOGPS_LOGP>
0.99

> <JCHEM_LOGP>
0.9

> <ALOGPS_LOGS>
-1.4

> <JCHEM_POLARIZABILITY>
29.95

> <JCHEM_POLAR_SURFACE_AREA>
52.93

> <JCHEM_REFRACTIVITY>
80.12

> <JCHEM_ROTATABLE_BOND_COUNT>
0

> <ALOGPS_SOLUBILITY>
1.02e+01 g/l __ 

$$$$
