724
  Mrv0541 02231214572D          

 18 20  0  0  0  0            999 V2000
    3.2646    0.4156    0.0000 N   0  0  0  0  0  0  0  0  0  0  0  0
    3.2646   -0.9122    0.0000 N   0  0  0  0  0  0  0  0  0  0  0  0
    5.4742   -0.6608    0.0000 N   0  0  0  0  0  0  0  0  0  0  0  0
    4.7597   -1.8983    0.0000 N   0  0  0  0  0  0  0  0  0  0  0  0
    3.0082    1.1998    0.0000 C   0  0  0  0  0  0  0  0  0  0  0  0
    2.2010    1.3699    0.0000 C   0  0  0  0  0  0  0  0  0  0  0  0
    4.0452    0.1642    0.0000 C   0  0  0  0  0  0  0  0  0  0  0  0
    4.7597    0.5767    0.0000 C   0  0  0  0  0  0  0  0  0  0  0  0
    4.0452   -0.6608    0.0000 C   0  0  0  0  0  0  0  0  0  0  0  0
    2.7831   -0.2483    0.0000 C   0  0  0  0  0  0  0  0  0  0  0  0
    1.6500    0.7559    0.0000 C   0  0  0  0  0  0  0  0  0  0  0  0
    1.9447    2.1541    0.0000 C   0  0  0  0  0  0  0  0  0  0  0  0
    5.4742    0.1642    0.0000 C   0  0  0  0  0  0  0  0  0  0  0  0
    4.7597   -1.0733    0.0000 C   0  0  0  0  0  0  0  0  0  0  0  0
    4.7464    1.4359    0.0000 C   0  0  0  0  0  0  0  0  0  0  0  0
    6.2249    0.5823    0.0000 C   0  0  0  0  0  0  0  0  0  0  0  0
    5.4873    1.8714    0.0000 C   0  0  0  0  0  0  0  0  0  0  0  0
    6.2315    1.4416    0.0000 C   0  0  0  0  0  0  0  0  0  0  0  0
  1  5  1  0  0  0  0
  1  7  1  0  0  0  0
  1 10  1  0  0  0  0
  2  9  1  0  0  0  0
  2 10  2  0  0  0  0
  3 13  1  0  0  0  0
  3 14  2  0  0  0  0
  4 14  1  0  0  0  0
  5  6  1  0  0  0  0
  6 11  1  0  0  0  0
  6 12  1  0  0  0  0
  7  8  1  0  0  0  0
  7  9  2  0  0  0  0
  8 13  1  0  0  0  0
  8 15  2  0  0  0  0
  9 14  1  0  0  0  0
 13 16  2  0  0  0  0
 15 17  1  0  0  0  0
 16 18  1  0  0  0  0
 17 18  2  0  0  0  0
M  END
> <DRUGBANK_ID>
DB00724

> <DRUG_GROUPS>
approved; investigational

> <GENERIC_NAME>
Imiquimod

> <SYNONYMS>
Imiquimod; Imiquimodum; Zartra

> <SALTS>
Imiquimod acetate

> <BRANDS>
Aldara; Beselna; Imimore; Imiquad; Labimiq; Li Di; Miquimod; Nan Bo; Nilwart; Omiquidar; Tian Rui; Vetland; Vyloma; You Care; Youbiqing; Zyclara

> <CHEMICAL_FORMULA>
C14H16N4

> <MOLECULAR_WEIGHT>
240.3036

> <EXACT_MASS>
240.137496532

> <IUPAC_NAME>
1-(2-methylpropyl)-1H-imidazo[4,5-c]quinolin-4-amine

> <IUPAC_TRADITIONAL_NAME>
imiquimod

> <INCHI_IDENTIFIER>
InChI=1S/C14H16N4/c1-9(2)7-18-8-16-12-13(18)10-5-3-4-6-11(10)17-14(12)15/h3-6,8-9H,7H2,1-2H3,(H2,15,17)

> <INCHI_KEY>
InChIKey=DOUYETYNHWVLEO-UHFFFAOYSA-N

> <SMILES>
CC(C)CN1C=NC2=C1C1=CC=CC=C1N=C2N

> <JCHEM_ACCEPTOR_COUNT>
3

> <JCHEM_DONOR_COUNT>
1

> <JCHEM_BASIC_PKA>
5.4

> <JCHEM_PHYSIOLOGICAL_CHARGE>
0

> <ALOGPS_LOGP>
2.83

> <JCHEM_LOGP>
2.65

> <ALOGPS_LOGS>
-3

> <JCHEM_POLARIZABILITY>
26.67

> <JCHEM_POLAR_SURFACE_AREA>
56.73

> <JCHEM_REFRACTIVITY>
72.54

> <JCHEM_ROTATABLE_BOND_COUNT>
2

> <ALOGPS_SOLUBILITY>
2.47e-01 g/l __ 

$$$$
