856
  Mrv0541 02231215032D          

 13 13  0  0  1  0            999 V2000
    2.3645   -3.0154    0.0000 Cl   0  0  0  0  0  0  0  0  0  0  0  0
    2.3645    0.2846    0.0000 O    0  0  0  0  0  0  0  0  0  0  0  0
    2.3645    1.9346    0.0000 O    0  0  0  0  0  0  0  0  0  0  0  0
    3.7934    2.7596    0.0000 O    0  0  0  0  0  0  0  0  0  0  0  0
    3.0790    1.5221    0.0000 C    0  0  0  0  0  0  0  0  0  0  0  0
    3.0790    0.6971    0.0000 C    0  0  0  0  0  0  0  0  0  0  0  0
    3.7934    1.9346    0.0000 C    0  0  0  0  0  0  0  0  0  0  0  0
    2.3645   -0.5404    0.0000 C    0  0  0  0  0  0  0  0  0  0  0  0
    3.0790   -0.9529    0.0000 C    0  0  0  0  0  0  0  0  0  0  0  0
    1.6500   -0.9529    0.0000 C    0  0  0  0  0  0  0  0  0  0  0  0
    3.0790   -1.7779    0.0000 C    0  0  0  0  0  0  0  0  0  0  0  0
    1.6500   -1.7779    0.0000 C    0  0  0  0  0  0  0  0  0  0  0  0
    2.3645   -2.1904    0.0000 C    0  0  0  0  0  0  0  0  0  0  0  0
  1 13  1  0  0  0  0
  2  6  1  0  0  0  0
  2  8  1  0  0  0  0
  3  5  1  0  0  0  0
  4  7  1  0  0  0  0
  5  6  1  0  0  0  0
  5  7  1  0  0  0  0
  8  9  2  0  0  0  0
  8 10  1  0  0  0  0
  9 11  1  0  0  0  0
 10 12  2  0  0  0  0
 11 13  2  0  0  0  0
 12 13  1  0  0  0  0
M  END
> <DRUGBANK_ID>
DB00856

> <DRUG_GROUPS>
approved; withdrawn

> <GENERIC_NAME>
Chlorphenesin

> <SYNONYMS>
Chlorphenesin; Chlorphénésine; Chlorphenesinum; Clorfenesina

> <BRANDS>
Maolate; Musil

> <CHEMICAL_FORMULA>
C9H11ClO3

> <MOLECULAR_WEIGHT>
202.635

> <EXACT_MASS>
202.039671925

> <IUPAC_NAME>
3-(4-chlorophenoxy)propane-1,2-diol

> <IUPAC_TRADITIONAL_NAME>
chlorphenesin

> <INCHI_IDENTIFIER>
InChI=1S/C9H11ClO3/c10-7-1-3-9(4-2-7)13-6-8(12)5-11/h1-4,8,11-12H,5-6H2

> <INCHI_KEY>
InChIKey=MXOAEAUPQDYUQM-UHFFFAOYSA-N

> <SMILES>
OCC(O)COC1=CC=C(Cl)C=C1

> <JCHEM_ACCEPTOR_COUNT>
3

> <JCHEM_DONOR_COUNT>
2

> <JCHEM_ACIDIC_PKA>
13.62

> <JCHEM_BASIC_PKA>
-3

> <JCHEM_PHYSIOLOGICAL_CHARGE>
0

> <ALOGPS_LOGP>
1.46

> <JCHEM_LOGP>
1.1

> <ALOGPS_LOGS>
-1.3

> <JCHEM_POLARIZABILITY>
20.1

> <JCHEM_POLAR_SURFACE_AREA>
49.69

> <JCHEM_REFRACTIVITY>
49.58

> <JCHEM_ROTATABLE_BOND_COUNT>
4

> <ALOGPS_SOLUBILITY>
1.04e+01 g/l __ 

$$$$
