640
  Mrv0541 02231214512D          

 19 21  0  0  1  0            999 V2000
    4.9010    0.6808    0.0000 O   0  0  0  0  0  0  0  0  0  0  0  0
    2.8071    1.0969    0.0000 O   0  0  0  0  0  0  0  0  0  0  0  0
    3.8647    2.5471    0.0000 O   0  0  0  0  0  0  0  0  0  0  0  0
    6.3238    1.6527    0.0000 O   0  0  0  0  0  0  0  0  0  0  0  0
    3.8597   -0.3570    0.0000 N   0  0  0  0  0  0  0  0  0  0  0  0
    3.8597   -1.6848    0.0000 N   0  0  0  0  0  0  0  0  0  0  0  0
    2.3645   -0.1959    0.0000 N   0  0  0  0  0  0  0  0  0  0  0  0
    1.6500   -1.4335    0.0000 N   0  0  0  0  0  0  0  0  0  0  0  0
    2.3645   -2.6710    0.0000 N   0  0  0  0  0  0  0  0  0  0  0  0
    3.6321    1.0955    0.0000 C   0  0  1  0  0  0  0  0  0  0  0  0
    4.1159    0.4272    0.0000 C   0  0  1  0  0  0  0  0  0  0  0  0
    4.1182    1.7621    0.0000 C   0  0  1  0  0  0  0  0  0  0  0  0
    4.9025    1.5058    0.0000 C   0  0  1  0  0  0  0  0  0  0  0  0
    5.5707    1.9896    0.0000 C   0  0  0  0  0  0  0  0  0  0  0  0
    3.0790   -0.6084    0.0000 C   0  0  0  0  0  0  0  0  0  0  0  0
    4.3411   -1.0210    0.0000 C   0  0  0  0  0  0  0  0  0  0  0  0
    3.0790   -1.4335    0.0000 C   0  0  0  0  0  0  0  0  0  0  0  0
    2.3645   -1.8460    0.0000 C   0  0  0  0  0  0  0  0  0  0  0  0
    1.6500   -0.6084    0.0000 C   0  0  0  0  0  0  0  0  0  0  0  0
  1 11  1  0  0  0  0
  1 13  1  0  0  0  0
 10  2  1  6  0  0  0
 12  3  1  6  0  0  0
  4 14  1  0  0  0  0
 11  5  1  1  0  0  0
  5 15  1  0  0  0  0
  5 16  1  0  0  0  0
  6 16  2  0  0  0  0
  6 17  1  0  0  0  0
  7 15  2  0  0  0  0
  7 19  1  0  0  0  0
  8 18  1  0  0  0  0
  8 19  2  0  0  0  0
  9 18  1  0  0  0  0
 10 11  1  0  0  0  0
 10 12  1  0  0  0  0
 12 13  1  0  0  0  0
 13 14  1  1  0  0  0
 15 17  1  0  0  0  0
 17 18  2  0  0  0  0
M  END
> <DRUGBANK_ID>
DB00640

> <DRUG_GROUPS>
approved; investigational

> <GENERIC_NAME>
Adenosine

> <SYNONYMS>
Adenin riboside; Adenosin; Adenosina; Adénosine; Adenosinum; Ado

> <BRANDS>
Adenocard; Adenocor; Adenoject; Adénoscan; Adenoscan; Adenoz; Adenozer; Adesin; Adrekar; Atépadène; Cardimax; Cardiovert; Krenosin; Osiden; Pisdeno; Tricor

> <CHEMICAL_FORMULA>
C10H13N5O4

> <MOLECULAR_WEIGHT>
267.2413

> <EXACT_MASS>
267.096753929

> <IUPAC_NAME>
(2R,3R,4S,5R)-2-(6-amino-9H-purin-9-yl)-5-(hydroxymethyl)oxolane-3,4-diol

> <IUPAC_TRADITIONAL_NAME>
adenosine

> <INCHI_IDENTIFIER>
InChI=1S/C10H13N5O4/c11-8-5-9(13-2-12-8)15(3-14-5)10-7(18)6(17)4(1-16)19-10/h2-4,6-7,10,16-18H,1H2,(H2,11,12,13)/t4-,6-,7-,10-/m1/s1

> <INCHI_KEY>
InChIKey=OIRDTQYFTABQOQ-KQYNXXCUSA-N

> <SMILES>
NC1=C2N=CN([C@@H]3O[C@H](CO)[C@@H](O)[C@H]3O)C2=NC=N1

> <JCHEM_ACCEPTOR_COUNT>
8

> <JCHEM_DONOR_COUNT>
4

> <JCHEM_ACIDIC_PKA>
12.45

> <JCHEM_BASIC_PKA>
4.99

> <JCHEM_PHYSIOLOGICAL_CHARGE>
0

> <ALOGPS_LOGP>
-1.2

> <JCHEM_LOGP>
-2.1

> <ALOGPS_LOGS>
-1.3

> <JCHEM_POLARIZABILITY>
25.27

> <JCHEM_POLAR_SURFACE_AREA>
139.54

> <JCHEM_REFRACTIVITY>
63.2

> <JCHEM_ROTATABLE_BOND_COUNT>
2

> <ALOGPS_SOLUBILITY>
1.40e+01 g/l __ 

$$$$
