575
  Mrv0541 02231214472D          

 14 15  0  0  0  0            999 V2000
    4.5080   -0.3751    0.0000 Cl   0  0  0  0  0  0  0  0  0  0  0  0
    1.6500   -0.3751    0.0000 Cl   0  0  0  0  0  0  0  0  0  0  0  0
    3.8797    1.6829    0.0000 N    0  0  0  0  0  0  0  0  0  0  0  0
    3.0791    0.4499    0.0000 N    0  0  0  0  0  0  0  0  0  0  0  0
    4.5472    0.5269    0.0000 N    0  0  0  0  0  0  0  0  0  0  0  0
    4.6868    1.8544    0.0000 C    0  0  0  0  0  0  0  0  0  0  0  0
    5.0993    1.1399    0.0000 C    0  0  0  0  0  0  0  0  0  0  0  0
    3.7935    0.8624    0.0000 C    0  0  0  0  0  0  0  0  0  0  0  0
    3.0791   -0.3751    0.0000 C    0  0  0  0  0  0  0  0  0  0  0  0
    3.7935   -0.7876    0.0000 C    0  0  0  0  0  0  0  0  0  0  0  0
    2.3645   -0.7876    0.0000 C    0  0  0  0  0  0  0  0  0  0  0  0
    3.7935   -1.6127    0.0000 C    0  0  0  0  0  0  0  0  0  0  0  0
    2.3645   -1.6127    0.0000 C    0  0  0  0  0  0  0  0  0  0  0  0
    3.0791   -2.0252    0.0000 C    0  0  0  0  0  0  0  0  0  0  0  0
  1 10  1  0  0  0  0
  2 11  1  0  0  0  0
  3  6  1  0  0  0  0
  3  8  1  0  0  0  0
  4  8  1  0  0  0  0
  4  9  1  0  0  0  0
  5  7  1  0  0  0  0
  5  8  2  0  0  0  0
  6  7  1  0  0  0  0
  9 10  2  0  0  0  0
  9 11  1  0  0  0  0
 10 12  1  0  0  0  0
 11 13  2  0  0  0  0
 12 14  2  0  0  0  0
 13 14  1  0  0  0  0
M  END
> <DRUGBANK_ID>
DB00575

> <DRUG_GROUPS>
approved

> <GENERIC_NAME>
Clonidine

> <SYNONYMS>
Chlofazoline; Clonidin; Clonidina; Clonidinum

> <SALTS>
Clonidine Hydrochloride

> <BRANDS>
Catapres; Catapres-TTS; Catapresan; Catapressan; Dixarit; Duraclon; Isoglaucon; Kapvay; Run Rui; Velaril; Winpress

> <CHEMICAL_FORMULA>
C9H9Cl2N3

> <MOLECULAR_WEIGHT>
230.094

> <EXACT_MASS>
229.017352717

> <IUPAC_NAME>
N-(2,6-dichlorophenyl)-4,5-dihydro-1H-imidazol-2-amine

> <IUPAC_TRADITIONAL_NAME>
clonidine

> <INCHI_IDENTIFIER>
InChI=1S/C9H9Cl2N3/c10-6-2-1-3-7(11)8(6)14-9-12-4-5-13-9/h1-3H,4-5H2,(H2,12,13,14)

> <INCHI_KEY>
InChIKey=GJSURZIOUXUGAL-UHFFFAOYSA-N

> <SMILES>
ClC1=CC=CC(Cl)=C1NC1=NCCN1

> <JCHEM_ACCEPTOR_COUNT>
3

> <JCHEM_DONOR_COUNT>
2

> <JCHEM_BASIC_PKA>
8.16

> <JCHEM_PHYSIOLOGICAL_CHARGE>
1

> <ALOGPS_LOGP>
2.55

> <JCHEM_LOGP>
2.49

> <ALOGPS_LOGS>
-2.7

> <JCHEM_POLARIZABILITY>
21.7

> <JCHEM_POLAR_SURFACE_AREA>
36.42

> <JCHEM_REFRACTIVITY>
59.09

> <JCHEM_ROTATABLE_BOND_COUNT>
1

> <ALOGPS_SOLUBILITY>
4.80e-01 g/l __ 

$$$$
