886
  Mrv0541 02231215052D          

 28 30  0  0  1  0            999 V2000
    2.1839    0.1533    0.0000 S   0  0  0  0  0  0  0  0  0  0  0  0
    6.4506    0.7041    0.0000 S   0  0  0  0  0  0  0  0  0  0  0  0
    4.4991   -1.1654    0.0000 O   0  0  0  0  0  0  0  0  0  0  0  0
    4.0068   -3.0361    0.0000 O   0  0  0  0  0  0  0  0  0  0  0  0
    4.6118   -1.7416    0.0000 O   0  0  0  0  0  0  0  0  0  0  0  0
    4.5240    1.7301    0.0000 O   0  0  0  0  0  0  0  0  0  0  0  0
    3.1107   -1.0090    0.0000 N   0  0  0  0  0  0  0  0  0  0  0  0
    4.8420    0.3369    0.0000 N   0  0  0  0  0  0  0  0  0  0  0  0
    2.3675   -0.6510    0.0000 C   0  0  2  0  0  0  0  0  0  0  0  0
    3.1882   -1.8649    0.0000 C   0  0  1  0  0  0  0  0  0  0  0  0
    1.6500   -1.1241    0.0000 C   0  0  0  0  0  0  0  0  0  0  0  0
    2.4819   -2.3544    0.0000 C   0  0  0  0  0  0  0  0  0  0  0  0
    1.7076   -1.9815    0.0000 C   0  0  0  0  0  0  0  0  0  0  0  0
    4.0376    0.1533    0.0000 C   0  0  0  0  0  0  0  0  0  0  0  0
    3.8541   -0.6510    0.0000 C   0  0  0  0  0  0  0  0  0  0  0  0
    3.5232    0.7984    0.0000 C   0  0  0  0  0  0  0  0  0  0  0  0
    2.6982    0.7984    0.0000 C   0  0  0  0  0  0  0  0  0  0  0  0
    3.9356   -2.2142    0.0000 C   0  0  0  0  0  0  0  0  0  0  0  0
    5.0852    1.1252    0.0000 C   0  0  0  0  0  0  0  0  0  0  0  0
    5.8895    1.3088    0.0000 C   0  0  2  0  0  0  0  0  0  0  0  0
    6.1327    2.0972    0.0000 C   0  0  0  0  0  0  0  0  0  0  0  0
    6.9370    2.2808    0.0000 C   0  0  0  0  0  0  0  0  0  0  0  0
    7.4982    1.6760    0.0000 C   0  0  0  0  0  0  0  0  0  0  0  0
    7.1802    3.0691    0.0000 C   0  0  0  0  0  0  0  0  0  0  0  0
    8.3025    1.8596    0.0000 C   0  0  0  0  0  0  0  0  0  0  0  0
    7.9845    3.2527    0.0000 C   0  0  0  0  0  0  0  0  0  0  0  0
    8.5457    2.6480    0.0000 C   0  0  0  0  0  0  0  0  0  0  0  0
    1.7550   -0.4052    0.0000 H   0  0  0  0  0  0  0  0  0  0  0  0
  1  9  1  0  0  0  0
  1 17  1  0  0  0  0
  2 20  1  0  0  0  0
  3 15  2  0  0  0  0
  4 18  1  0  0  0  0
  5 18  2  0  0  0  0
  6 19  2  0  0  0  0
  7  9  1  0  0  0  0
  7 10  1  0  0  0  0
  7 15  1  0  0  0  0
  8 14  1  0  0  0  0
  8 19  1  0  0  0  0
  9 11  1  0  0  0  0
  9 28  1  1  0  0  0
 10 12  1  0  0  0  0
 10 18  1  6  0  0  0
 11 13  1  0  0  0  0
 12 13  1  0  0  0  0
 14 15  1  0  0  0  0
 14 16  1  0  0  0  0
 16 17  1  0  0  0  0
 20 19  1  6  0  0  0
 20 21  1  0  0  0  0
 21 22  1  0  0  0  0
 22 23  2  0  0  0  0
 22 24  1  0  0  0  0
 23 25  1  0  0  0  0
 24 26  2  0  0  0  0
 25 27  2  0  0  0  0
 26 27  1  0  0  0  0
M  END
> <DRUGBANK_ID>
DB00886

> <DRUG_GROUPS>
investigational

> <GENERIC_NAME>
Omapatrilat

> <BRANDS>


> <CHEMICAL_FORMULA>
C19H24N2O4S2

> <MOLECULAR_WEIGHT>
408.535

> <EXACT_MASS>
408.117748646

> <IUPAC_NAME>
(7S,10aS)-5-oxo-4-[(2S)-3-phenyl-2-sulfanylpropanamido]-octahydro-2H-pyrido[2,1-b][1,3]thiazepine-7-carboxylic acid

> <IUPAC_TRADITIONAL_NAME>
(7S,10aS)-5-oxo-4-[(2S)-3-phenyl-2-sulfanylpropanamido]-octahydropyrido[2,1-b][1,3]thiazepine-7-carboxylic acid

> <INCHI_IDENTIFIER>
InChI=1S/C19H24N2O4S2/c22-17(15(26)11-12-5-2-1-3-6-12)20-13-9-10-27-16-8-4-7-14(19(24)25)21(16)18(13)23/h1-3,5-6,13-16,26H,4,7-11H2,(H,20,22)(H,24,25)/t13?,14-,15-,16-/m0/s1

> <INCHI_KEY>
InChIKey=LVRLSYPNFFBYCZ-JFKGFPBSSA-N

> <SMILES>
[H][C@]12CCC[C@H](N1C(=O)C(CCS2)NC(=O)[C@@H](S)CC1=CC=CC=C1)C(O)=O

> <JCHEM_ACCEPTOR_COUNT>
4

> <JCHEM_DONOR_COUNT>
3

> <JCHEM_ACIDIC_PKA>
3.77

> <JCHEM_BASIC_PKA>
-3.6

> <JCHEM_PHYSIOLOGICAL_CHARGE>
-1

> <ALOGPS_LOGP>
2.15

> <JCHEM_LOGP>
2.06

> <ALOGPS_LOGS>
-3.7

> <JCHEM_POLARIZABILITY>
42.03

> <JCHEM_POLAR_SURFACE_AREA>
86.71

> <JCHEM_REFRACTIVITY>
106.68

> <JCHEM_ROTATABLE_BOND_COUNT>
5

> <ALOGPS_SOLUBILITY>
7.69e-02 g/l __ 

$$$$
