236
  Mrv0541 02231214322D          

 16 16  0  0  0  0            999 V2000
    1.6500   -3.3000    0.0000 Br   0  0  0  0  0  0  0  0  0  0  0  0
    4.5079    3.3000    0.0000 Br   0  0  0  0  0  0  0  0  0  0  0  0
    3.7935   -2.0625    0.0000 O    0  0  0  0  0  0  0  0  0  0  0  0
    2.3645    2.0625    0.0000 O    0  0  0  0  0  0  0  0  0  0  0  0
    3.0790   -0.8250    0.0000 N    0  0  0  0  0  0  0  0  0  0  0  0
    3.0790    0.8250    0.0000 N    0  0  0  0  0  0  0  0  0  0  0  0
    3.7935   -0.4125    0.0000 C    0  0  0  0  0  0  0  0  0  0  0  0
    2.3645   -0.4125    0.0000 C    0  0  0  0  0  0  0  0  0  0  0  0
    3.7935    0.4125    0.0000 C    0  0  0  0  0  0  0  0  0  0  0  0
    2.3645    0.4125    0.0000 C    0  0  0  0  0  0  0  0  0  0  0  0
    3.0790   -1.6500    0.0000 C    0  0  0  0  0  0  0  0  0  0  0  0
    3.0790    1.6500    0.0000 C    0  0  0  0  0  0  0  0  0  0  0  0
    2.3645   -2.0625    0.0000 C    0  0  0  0  0  0  0  0  0  0  0  0
    3.7935    2.0625    0.0000 C    0  0  0  0  0  0  0  0  0  0  0  0
    2.3645   -2.8875    0.0000 C    0  0  0  0  0  0  0  0  0  0  0  0
    3.7935    2.8875    0.0000 C    0  0  0  0  0  0  0  0  0  0  0  0
  1 15  1  0  0  0  0
  2 16  1  0  0  0  0
  3 11  2  0  0  0  0
  4 12  2  0  0  0  0
  5  7  1  0  0  0  0
  5  8  1  0  0  0  0
  5 11  1  0  0  0  0
  6  9  1  0  0  0  0
  6 10  1  0  0  0  0
  6 12  1  0  0  0  0
  7  9  1  0  0  0  0
  8 10  1  0  0  0  0
 11 13  1  0  0  0  0
 12 14  1  0  0  0  0
 13 15  1  0  0  0  0
 14 16  1  0  0  0  0
M  END
> <DRUGBANK_ID>
DB00236

> <DRUG_GROUPS>
approved

> <GENERIC_NAME>
Pipobroman

> <BRANDS>
Vercite; Vercyte

> <CHEMICAL_FORMULA>
C10H16Br2N2O2

> <MOLECULAR_WEIGHT>
356.054

> <EXACT_MASS>
353.95785306

> <IUPAC_NAME>
3-bromo-1-[4-(3-bromopropanoyl)piperazin-1-yl]propan-1-one

> <IUPAC_TRADITIONAL_NAME>
pipobroman

> <INCHI_IDENTIFIER>
InChI=1S/C10H16Br2N2O2/c11-3-1-9(15)13-5-7-14(8-6-13)10(16)2-4-12/h1-8H2

> <INCHI_KEY>
InChIKey=NJBFOOCLYDNZJN-UHFFFAOYSA-N

> <SMILES>
BrCCC(=O)N1CCN(CC1)C(=O)CCBr

> <JCHEM_ACCEPTOR_COUNT>
2

> <JCHEM_DONOR_COUNT>
0

> <JCHEM_BASIC_PKA>
-0.72

> <JCHEM_PHYSIOLOGICAL_CHARGE>
0

> <ALOGPS_LOGP>
1.09

> <JCHEM_LOGP>
0.41

> <ALOGPS_LOGS>
-2.2

> <JCHEM_POLARIZABILITY>
28.44

> <JCHEM_POLAR_SURFACE_AREA>
40.62

> <JCHEM_REFRACTIVITY>
69.45

> <JCHEM_ROTATABLE_BOND_COUNT>
4

> <ALOGPS_SOLUBILITY>
2.24e+00 g/l __ 

$$$$
