 
  Mrv0541 02231214332D          
 
 34 37  0  0  1  0            999 V2000
   17.9362   -9.4212    0.0000 C   0  0  2  0  0  0  0  0  0  0  0  0
   17.9533  -10.2420    0.0000 C   0  0  2  0  0  0  0  0  0  0  0  0
   18.6558   -9.0195    0.0000 C   0  0  1  0  0  0  0  0  0  0  0  0
   17.2306   -9.0021    0.0000 C   0  0  2  0  0  0  0  0  0  0  0  0
   17.2132  -10.6472    0.0000 C   0  0  0  0  0  0  0  0  0  0  0  0
   18.6314  -10.6646    0.0000 C   0  0  0  0  0  0  0  0  0  0  0  0
   19.3578   -9.4422    0.0000 C   0  0  0  0  0  0  0  0  0  0  0  0
   16.5111   -9.4073    0.0000 C   0  0  1  0  0  0  0  0  0  0  0  0
   16.5467  -10.2315    0.0000 C   0  0  0  0  0  0  0  0  0  0  0  0
   17.2098  -11.4751    0.0000 O   0  0  0  0  0  0  0  0  0  0  0  0
   19.3508  -10.2630    0.0000 C   0  0  0  0  0  0  0  0  0  0  0  0
   18.6024  -11.4925    0.0000 O   0  0  0  0  0  0  0  0  0  0  0  0
   20.0845   -9.0405    0.0000 O   0  0  0  0  0  0  0  0  0  0  0  0
   15.7986   -8.9915    0.0000 C   0  0  2  0  0  0  0  0  0  0  0  0
   15.7916  -10.6437    0.0000 C   0  0  0  0  0  0  0  0  0  0  0  0
   20.0599  -10.6892    0.0000 C   0  0  0  0  0  0  0  0  0  0  0  0
   15.0859   -9.4004    0.0000 C   0  0  0  0  0  0  0  0  0  0  0  0
   15.0825  -10.2280    0.0000 C   0  0  0  0  0  0  0  0  0  0  0  0
   15.7916  -11.4680    0.0000 O   0  0  0  0  0  0  0  0  0  0  0  0
   20.7830  -10.2839    0.0000 N   0  0  0  0  0  0  0  0  0  0  0  0
   20.0771  -11.5169    0.0000 O   0  0  0  0  0  0  0  0  0  0  0  0
   14.3629   -8.9881    0.0000 C   0  0  0  0  0  0  0  0  0  0  0  0
   14.3665  -10.6402    0.0000 C   0  0  0  0  0  0  0  0  0  0  0  0
   13.6503   -9.4038    0.0000 C   0  0  0  0  0  0  0  0  0  0  0  0
   13.6503  -10.2315    0.0000 C   0  0  0  0  0  0  0  0  0  0  0  0
   14.3665  -11.4680    0.0000 O   0  0  0  0  0  0  0  0  0  0  0  0
   15.8018   -7.9491    0.0000 C   0  0  0  0  0  0  0  0  0  0  0  0
   18.6694   -7.6875    0.0000 N   0  0  0  0  0  0  0  0  0  0  0  0
   19.3998   -7.2816    0.0000 C   0  0  0  0  0  0  0  0  0  0  0  0
   17.9526   -7.2579    0.0000 C   0  0  0  0  0  0  0  0  0  0  0  0
   17.9292   -8.5820    0.0000 H   0  0  0  0  0  0  0  0  0  0  0  0
   16.5069   -8.5693    0.0000 H   0  0  0  0  0  0  0  0  0  0  0  0
   17.2245   -7.9574    0.0000 O   0  0  0  0  0  0  0  0  0  0  0  0
   17.9208  -11.0764    0.0000 O   0  0  0  0  0  0  0  0  0  0  0  0
  5  9  2  0  0  0  0
  5 10  1  0  0  0  0
  6 11  1  0  0  0  0
  6 12  2  0  0  0  0
  7 13  1  0  0  0  0
  8 14  1  0  0  0  0
  9 15  1  0  0  0  0
 11 16  1  0  0  0  0
 14 17  1  0  0  0  0
 15 18  1  0  0  0  0
 15 19  2  0  0  0  0
 16 20  1  0  0  0  0
 16 21  2  0  0  0  0
 17 22  1  0  0  0  0
 18 23  1  0  0  0  0
 22 24  2  0  0  0  0
 23 25  2  0  0  0  0
 23 26  1  0  0  0  0
  7 11  2  0  0  0  0
  8  9  1  0  0  0  0
 17 18  2  0  0  0  0
 24 25  1  0  0  0  0
 14 27  1  6  0  0  0
  3 28  1  6  0  0  0
  1  2  1  0  0  0  0
 28 29  1  0  0  0  0
  1  3  1  0  0  0  0
 28 30  1  0  0  0  0
  1  4  1  0  0  0  0
  1 31  1  6  0  0  0
  2  5  1  0  0  0  0
  8 32  1  6  0  0  0
  2  6  1  0  0  0  0
  4 33  1  6  0  0  0
  3  7  1  0  0  0  0
  2 34  1  6  0  0  0
  4  8  1  0  0  0  0
M  END
> <DRUGBANK_ID>
DB00254

> <DRUG_GROUPS>
approved; investigational

> <GENERIC_NAME>
Doxycycline

> <SYNONYMS>
6-alpha-deoxy-5-oxytetracycline; 6Î±-deoxy-5-oxytetracycline

> <SALTS>
Doxycycline hyclate; Doxycycline hydrochloride

> <BRANDS>
Atridox; Doryx; Doxy 100; Doxy-Caps; Doxycin; Doxylin; Jenacyclin; Microdox; Monodox; Novo-Doxylin; Nu-Doxycycline; Oracea; Periostat; Supracyclin; Vibra-Tabs; Vibramycin

> <CHEMICAL_FORMULA>
C22H24N2O8

> <MOLECULAR_WEIGHT>
444.4346

> <EXACT_MASS>
444.153265754

> <IUPAC_NAME>
(4S,4aR,5S,5aR,6R,12aS)-4-(dimethylamino)-3,5,10,12,12a-pentahydroxy-6-methyl-1,11-dioxo-1,4,4a,5,5a,6,11,12a-octahydrotetracene-2-carboxamide

> <IUPAC_TRADITIONAL_NAME>
doxycycline

> <INCHI_IDENTIFIER>
InChI=1S/C22H24N2O8/c1-7-8-5-4-6-9(25)11(8)16(26)12-10(7)17(27)14-15(24(2)3)18(28)13(21(23)31)20(30)22(14,32)19(12)29/h4-7,10,14-15,17,25,27-29,32H,1-3H3,(H2,23,31)/t7-,10+,14+,15-,17-,22-/m0/s1

> <INCHI_KEY>
InChIKey=JBIWCJUYHHGXTC-AKNGSSGZSA-N

> <SMILES>
[H][C@@]12[C@@H](C)C3=C(C(O)=CC=C3)C(=O)C1=C(O)[C@]1(O)C(=O)C(C(N)=O)=C(O)[C@@H](N(C)C)[C@]1([H])[C@H]2O

> <JCHEM_ACCEPTOR_COUNT>
9

> <JCHEM_DONOR_COUNT>
6

> <JCHEM_ACIDIC_PKA>
-2.2

> <JCHEM_BASIC_PKA>
7.75

> <JCHEM_PHYSIOLOGICAL_CHARGE>
-1

> <ALOGPS_LOGP>
-0.72

> <JCHEM_LOGP>
-3.4

> <ALOGPS_LOGS>
-2.9

> <JCHEM_POLARIZABILITY>
42.88

> <JCHEM_POLAR_SURFACE_AREA>
181.62

> <JCHEM_REFRACTIVITY>
113.89

> <JCHEM_ROTATABLE_BOND_COUNT>
2

> <ALOGPS_SOLUBILITY>
6.30e-01 g/l __ 

$$$$
