444
  Mrv0541 02231214412D          

 50 57  0  0  1  0            999 V2000
    3.5771    4.2067    0.0000 S   0  0  0  0  0  0  0  0  0  0  0  0
    3.5220   -0.8704    0.0000 O   0  0  0  0  0  0  0  0  0  0  0  0
    5.9393    0.0164    0.0000 O   0  0  0  0  0  0  0  0  0  0  0  0
    4.2365    0.3671    0.0000 O   0  0  0  0  0  0  0  0  0  0  0  0
    3.5087    2.4639    0.0000 O   0  0  0  0  0  0  0  0  0  0  0  0
    7.0808   -0.9027    0.0000 O   0  0  0  0  0  0  0  0  0  0  0  0
    2.0930   -0.0454    0.0000 O   0  0  0  0  0  0  0  0  0  0  0  0
    4.9938    2.4696    0.0000 O   0  0  0  0  0  0  0  0  0  0  0  0
    2.0930    1.6047    0.0000 O   0  0  0  0  0  0  0  0  0  0  0  0
    2.8457   -3.9587    0.0000 O   0  0  0  0  0  0  0  0  0  0  0  0
    4.0435   -4.6502    0.0000 O   0  0  0  0  0  0  0  0  0  0  0  0
    7.0944   -4.5830    0.0000 O   0  0  0  0  0  0  0  0  0  0  0  0
    8.5234   -2.1079    0.0000 O   0  0  0  0  0  0  0  0  0  0  0  0
    8.5234   -3.7580    0.0000 O   0  0  0  0  0  0  0  0  0  0  0  0
    4.9509   -0.8704    0.0000 C   0  0  1  0  0  0  0  0  0  0  0  0
    5.6655   -1.2829    0.0000 C   0  0  1  0  0  0  0  0  0  0  0  0
    4.2365   -1.2829    0.0000 C   0  0  1  0  0  0  0  0  0  0  0  0
    5.6655   -2.1079    0.0000 C   0  0  1  0  0  0  0  0  0  0  0  0
    4.2365   -2.1079    0.0000 C   0  0  0  0  0  0  0  0  0  0  0  0
    4.9509   -2.5204    0.0000 C   0  0  0  0  0  0  0  0  0  0  0  0
    5.1235   -0.0686    0.0000 C   0  0  0  0  0  0  0  0  0  0  0  0
    6.2735   -0.7325    0.0000 C   0  0  0  0  0  0  0  0  0  0  0  0
    3.5220   -0.0454    0.0000 C   0  0  2  0  0  0  0  0  0  0  0  0
    6.3799   -2.5204    0.0000 C   0  0  0  0  0  0  0  0  0  0  0  0
    2.8075    0.3671    0.0000 C   0  0  1  0  0  0  0  0  0  0  0  0
    3.5220    1.6047    0.0000 C   0  0  1  0  0  0  0  0  0  0  0  0
    2.8075    1.1922    0.0000 C   0  0  2  0  0  0  0  0  0  0  0  0
    4.2365    1.1922    0.0000 C   0  0  1  0  0  0  0  0  0  0  0  0
    3.4857   -2.5261    0.0000 C   0  0  0  0  0  0  0  0  0  0  0  0
    4.9642   -3.3797    0.0000 C   0  0  0  0  0  0  0  0  0  0  0  0
    3.4791   -3.3855    0.0000 C   0  0  0  0  0  0  0  0  0  0  0  0
    4.2234   -3.8151    0.0000 C   0  0  0  0  0  0  0  0  0  0  0  0
    4.9872    1.6103    0.0000 C   0  0  0  0  0  0  0  0  0  0  0  0
    7.0944   -2.1079    0.0000 C   0  0  0  0  0  0  0  0  0  0  0  0
    6.3799   -3.3454    0.0000 C   0  0  0  0  0  0  0  0  0  0  0  0
    4.2497    2.8994    0.0000 C   0  0  0  0  0  0  0  0  0  0  0  0
    7.0944   -3.7580    0.0000 C   0  0  0  0  0  0  0  0  0  0  0  0
    7.8089   -2.5204    0.0000 C   0  0  0  0  0  0  0  0  0  0  0  0
    3.1939   -4.7388    0.0000 C   0  0  0  0  0  0  0  0  0  0  0  0
    7.8089   -3.3454    0.0000 C   0  0  0  0  0  0  0  0  0  0  0  0
    4.2465    3.7243    0.0000 C   0  0  0  0  0  0  0  0  0  0  0  0
    4.9121    4.2118    0.0000 C   0  0  0  0  0  0  0  0  0  0  0  0
    4.6541    4.9955    0.0000 C   0  0  0  0  0  0  0  0  0  0  0  0
    3.8291    4.9923    0.0000 C   0  0  0  0  0  0  0  0  0  0  0  0
    6.3799   -4.9955    0.0000 C   0  0  0  0  0  0  0  0  0  0  0  0
    9.2379   -2.5204    0.0000 C   0  0  0  0  0  0  0  0  0  0  0  0
    4.4175   -0.4817    0.0000 H   0  0  0  0  0  0  0  0  0  0  0  0
    6.2687   -1.5505    0.0000 H   0  0  0  0  0  0  0  0  0  0  0  0
    2.9479    1.9302    0.0000 H   0  0  0  0  0  0  0  0  0  0  0  0
    4.8055    0.8578    0.0000 H   0  0  0  0  0  0  0  0  0  0  0  0
  1 41  1  0  0  0  0
  1 44  1  0  0  0  0
 17  2  1  1  0  0  0
 23  2  1  1  0  0  0
  3 21  1  0  0  0  0
  3 22  1  0  0  0  0
  4 23  1  0  0  0  0
  4 28  1  0  0  0  0
  5 26  1  0  0  0  0
  5 36  1  0  0  0  0
  6 22  2  0  0  0  0
 25  7  1  6  0  0  0
  8 33  1  0  0  0  0
  8 36  1  0  0  0  0
 27  9  1  1  0  0  0
 10 31  1  0  0  0  0
 10 39  1  0  0  0  0
 11 32  1  0  0  0  0
 11 39  1  0  0  0  0
 12 37  1  0  0  0  0
 12 45  1  0  0  0  0
 13 38  1  0  0  0  0
 13 46  1  0  0  0  0
 14 40  1  0  0  0  0
 15 16  1  0  0  0  0
 15 17  1  0  0  0  0
 15 21  1  0  0  0  0
 15 47  1  6  0  0  0
 16 18  1  0  0  0  0
 16 22  1  0  0  0  0
 16 48  1  1  0  0  0
 17 19  1  0  0  0  0
 18 20  1  0  0  0  0
 18 24  1  6  0  0  0
 19 20  1  0  0  0  0
 19 29  2  0  0  0  0
 20 30  2  0  0  0  0
 23 25  1  0  0  0  0
 24 34  2  0  0  0  0
 24 35  1  0  0  0  0
 25 27  1  0  0  0  0
 26 27  1  0  0  0  0
 26 28  1  0  0  0  0
 26 49  1  1  0  0  0
 28 33  1  0  0  0  0
 28 50  1  6  0  0  0
 29 31  1  0  0  0  0
 30 32  1  0  0  0  0
 31 32  2  0  0  0  0
 34 38  1  0  0  0  0
 35 37  2  0  0  0  0
 36 41  1  0  0  0  0
 37 40  1  0  0  0  0
 38 40  2  0  0  0  0
 41 42  2  0  0  0  0
 42 43  1  0  0  0  0
 43 44  2  0  0  0  0
M  END
> <DRUGBANK_ID>
DB00444

> <DRUG_GROUPS>
approved

> <GENERIC_NAME>
Teniposide

> <SYNONYMS>
Teniposido; Teniposidum

> <BRANDS>


> <CHEMICAL_FORMULA>
C32H32O13S

> <MOLECULAR_WEIGHT>
656.654

> <EXACT_MASS>
656.1563618

> <IUPAC_NAME>
(10R,11R,15R,16S)-16-{[(4aR,6R,7R,8R,8aS)-7,8-dihydroxy-2-(thiophen-2-yl)-hexahydro-2H-pyrano[3,2-d][1,3]dioxin-6-yl]oxy}-10-(4-hydroxy-3,5-dimethoxyphenyl)-4,6,13-trioxatetracyclo[7.7.0.0^{3,7}.0^{11,15}]hexadeca-1(9),2,7-trien-12-one

> <IUPAC_TRADITIONAL_NAME>
(10R,11R,15R,16S)-16-{[(4aR,6R,7R,8R,8aS)-7,8-dihydroxy-2-(thiophen-2-yl)-hexahydro-2H-pyrano[3,2-d][1,3]dioxin-6-yl]oxy}-10-(4-hydroxy-3,5-dimethoxyphenyl)-4,6,13-trioxatetracyclo[7.7.0.0^{3,7}.0^{11,15}]hexadeca-1(9),2,7-trien-12-one

> <INCHI_IDENTIFIER>
InChI=1S/C32H32O13S/c1-37-19-6-13(7-20(38-2)25(19)33)23-14-8-17-18(42-12-41-17)9-15(14)28(16-10-39-30(36)24(16)23)44-32-27(35)26(34)29-21(43-32)11-40-31(45-29)22-4-3-5-46-22/h3-9,16,21,23-24,26-29,31-35H,10-12H2,1-2H3/t16-,21+,23+,24-,26+,27+,28+,29+,31?,32-/m0/s1

> <INCHI_KEY>
InChIKey=NRUKOCRGYNPUPR-PSZSYXFXSA-N

> <SMILES>
[H][C@]12COC(=O)[C@]1([H])[C@H](C1=CC(OC)=C(O)C(OC)=C1)C1=CC3=C(OCO3)C=C1[C@H]2O[C@@H]1O[C@]2([H])COC(O[C@@]2([H])[C@H](O)[C@H]1O)C1=CC=CS1

> <JCHEM_ACCEPTOR_COUNT>
12

> <JCHEM_DONOR_COUNT>
3

> <JCHEM_ACIDIC_PKA>
9.33

> <JCHEM_BASIC_PKA>
-3.7

> <JCHEM_PHYSIOLOGICAL_CHARGE>
0

> <ALOGPS_LOGP>
2.78

> <JCHEM_LOGP>
2.78

> <ALOGPS_LOGS>
-4

> <JCHEM_POLARIZABILITY>
65.8

> <JCHEM_POLAR_SURFACE_AREA>
160.83

> <JCHEM_REFRACTIVITY>
155.61

> <JCHEM_ROTATABLE_BOND_COUNT>
6

> <ALOGPS_SOLUBILITY>
5.98e-02 g/l __ 

$$$$
