490
  Mrv0541 02231214432D          

 28 31  0  0  0  0            999 V2000
    9.0752   -1.7862    0.0000 O   0  0  0  0  0  0  0  0  0  0  0  0
    9.0752    1.0717    0.0000 O   0  0  0  0  0  0  0  0  0  0  0  0
    9.0752   -0.3572    0.0000 N   0  0  0  0  0  0  0  0  0  0  0  0
    5.7751    1.0717    0.0000 N   0  0  0  0  0  0  0  0  0  0  0  0
    4.1251    1.0717    0.0000 N   0  0  0  0  0  0  0  0  0  0  0  0
    2.8876    0.3572    0.0000 N   0  0  0  0  0  0  0  0  0  0  0  0
    2.8876    1.7862    0.0000 N   0  0  0  0  0  0  0  0  0  0  0  0
   10.7252   -0.3572    0.0000 C   0  0  0  0  0  0  0  0  0  0  0  0
   11.2102   -1.0247    0.0000 C   0  0  0  0  0  0  0  0  0  0  0  0
   11.2102    0.3102    0.0000 C   0  0  0  0  0  0  0  0  0  0  0  0
   11.9948   -0.7697    0.0000 C   0  0  0  0  0  0  0  0  0  0  0  0
   11.9948    0.0553    0.0000 C   0  0  0  0  0  0  0  0  0  0  0  0
   10.3127   -1.0717    0.0000 C   0  0  0  0  0  0  0  0  0  0  0  0
   10.3127    0.3572    0.0000 C   0  0  0  0  0  0  0  0  0  0  0  0
    9.4877   -1.0717    0.0000 C   0  0  0  0  0  0  0  0  0  0  0  0
    9.4877    0.3572    0.0000 C   0  0  0  0  0  0  0  0  0  0  0  0
    8.2502   -0.3572    0.0000 C   0  0  0  0  0  0  0  0  0  0  0  0
    7.8377    0.3572    0.0000 C   0  0  0  0  0  0  0  0  0  0  0  0
    7.0127    0.3572    0.0000 C   0  0  0  0  0  0  0  0  0  0  0  0
    6.6001    1.0717    0.0000 C   0  0  0  0  0  0  0  0  0  0  0  0
    5.3626    0.3572    0.0000 C   0  0  0  0  0  0  0  0  0  0  0  0
    5.3626    1.7862    0.0000 C   0  0  0  0  0  0  0  0  0  0  0  0
    4.5376    0.3572    0.0000 C   0  0  0  0  0  0  0  0  0  0  0  0
    4.5376    1.7862    0.0000 C   0  0  0  0  0  0  0  0  0  0  0  0
    3.3001    1.0717    0.0000 C   0  0  0  0  0  0  0  0  0  0  0  0
    2.0625    0.3572    0.0000 C   0  0  0  0  0  0  0  0  0  0  0  0
    2.0625    1.7862    0.0000 C   0  0  0  0  0  0  0  0  0  0  0  0
    1.6500    1.0717    0.0000 C   0  0  0  0  0  0  0  0  0  0  0  0
  1 15  2  0  0  0  0
  2 16  2  0  0  0  0
  3 15  1  0  0  0  0
  3 16  1  0  0  0  0
  3 17  1  0  0  0  0
  4 20  1  0  0  0  0
  4 21  1  0  0  0  0
  4 22  1  0  0  0  0
  5 23  1  0  0  0  0
  5 24  1  0  0  0  0
  5 25  1  0  0  0  0
  6 25  2  0  0  0  0
  6 26  1  0  0  0  0
  7 25  1  0  0  0  0
  7 27  2  0  0  0  0
  8  9  1  0  0  0  0
  8 10  1  0  0  0  0
  8 13  1  0  0  0  0
  8 14  1  0  0  0  0
  9 11  1  0  0  0  0
 10 12  1  0  0  0  0
 11 12  1  0  0  0  0
 13 15  1  0  0  0  0
 14 16  1  0  0  0  0
 17 18  1  0  0  0  0
 18 19  1  0  0  0  0
 19 20  1  0  0  0  0
 21 23  1  0  0  0  0
 22 24  1  0  0  0  0
 26 28  2  0  0  0  0
 27 28  1  0  0  0  0
M  END
> <DRUGBANK_ID>
DB00490

> <DRUG_GROUPS>
approved; investigational

> <GENERIC_NAME>
Buspirone

> <SYNONYMS>
Buspiron; Buspirona; Buspirone; Buspironum

> <SALTS>
Buspirone Hydrochloride

> <BRANDS>
Ansial; Anxiron; Anxut; Bespar; Buscalm; Busp; Buspar; Buspon; Dalpas; Epsilat; Pasrin; Spamilan

> <CHEMICAL_FORMULA>
C21H31N5O2

> <MOLECULAR_WEIGHT>
385.5031

> <EXACT_MASS>
385.247775261

> <IUPAC_NAME>
8-{4-[4-(pyrimidin-2-yl)piperazin-1-yl]butyl}-8-azaspiro[4.5]decane-7,9-dione

> <IUPAC_TRADITIONAL_NAME>
buspirone

> <INCHI_IDENTIFIER>
InChI=1S/C21H31N5O2/c27-18-16-21(6-1-2-7-21)17-19(28)26(18)11-4-3-10-24-12-14-25(15-13-24)20-22-8-5-9-23-20/h5,8-9H,1-4,6-7,10-17H2

> <INCHI_KEY>
InChIKey=QWCRAEMEVRGPNT-UHFFFAOYSA-N

> <SMILES>
O=C1CC2(CCCC2)CC(=O)N1CCCCN1CCN(CC1)C1=NC=CC=N1

> <JCHEM_ACCEPTOR_COUNT>
6

> <JCHEM_DONOR_COUNT>
0

> <JCHEM_BASIC_PKA>
7.62

> <JCHEM_PHYSIOLOGICAL_CHARGE>
1

> <ALOGPS_LOGP>
1.95

> <JCHEM_LOGP>
1.78

> <ALOGPS_LOGS>
-2.8

> <JCHEM_POLARIZABILITY>
44.12

> <JCHEM_POLAR_SURFACE_AREA>
69.64

> <JCHEM_REFRACTIVITY>
108.89

> <JCHEM_ROTATABLE_BOND_COUNT>
6

> <ALOGPS_SOLUBILITY>
5.88e-01 g/l __ 

$$$$
