692
  Mrv0541 02231214562D          

 21 23  0  0  0  0            999 V2000
    2.0894   -2.2353    0.0000 O   0  0  0  0  0  0  0  0  0  0  0  0
    3.5185    0.2398    0.0000 N   0  0  0  0  0  0  0  0  0  0  0  0
    2.1365    1.9622    0.0000 N   0  0  0  0  0  0  0  0  0  0  0  0
    3.4714    1.9622    0.0000 N   0  0  0  0  0  0  0  0  0  0  0  0
    2.8040    0.6523    0.0000 C   0  0  0  0  0  0  0  0  0  0  0  0
    2.8040    1.4773    0.0000 C   0  0  0  0  0  0  0  0  0  0  0  0
    2.3915    2.7468    0.0000 C   0  0  0  0  0  0  0  0  0  0  0  0
    3.2165    2.7468    0.0000 C   0  0  0  0  0  0  0  0  0  0  0  0
    4.2329    0.6523    0.0000 C   0  0  0  0  0  0  0  0  0  0  0  0
    3.5185   -0.5853    0.0000 C   0  0  0  0  0  0  0  0  0  0  0  0
    4.9474    0.2398    0.0000 C   0  0  0  0  0  0  0  0  0  0  0  0
    4.2329    1.4773    0.0000 C   0  0  0  0  0  0  0  0  0  0  0  0
    2.8040   -0.9978    0.0000 C   0  0  0  0  0  0  0  0  0  0  0  0
    4.2329   -0.9978    0.0000 C   0  0  0  0  0  0  0  0  0  0  0  0
    5.6619    1.4773    0.0000 C   0  0  0  0  0  0  0  0  0  0  0  0
    5.6619    0.6523    0.0000 C   0  0  0  0  0  0  0  0  0  0  0  0
    4.9474    1.8898    0.0000 C   0  0  0  0  0  0  0  0  0  0  0  0
    2.8040   -1.8228    0.0000 C   0  0  0  0  0  0  0  0  0  0  0  0
    4.2329   -1.8228    0.0000 C   0  0  0  0  0  0  0  0  0  0  0  0
    3.5185   -2.2353    0.0000 C   0  0  0  0  0  0  0  0  0  0  0  0
    6.3764    1.8898    0.0000 C   0  0  0  0  0  0  0  0  0  0  0  0
  1 18  1  0  0  0  0
  2  5  1  0  0  0  0
  2  9  1  0  0  0  0
  2 10  1  0  0  0  0
  3  6  1  0  0  0  0
  3  7  1  0  0  0  0
  4  6  2  0  0  0  0
  4  8  1  0  0  0  0
  5  6  1  0  0  0  0
  7  8  1  0  0  0  0
  9 11  2  0  0  0  0
  9 12  1  0  0  0  0
 10 13  2  0  0  0  0
 10 14  1  0  0  0  0
 11 16  1  0  0  0  0
 12 17  2  0  0  0  0
 13 18  1  0  0  0  0
 14 19  2  0  0  0  0
 15 16  2  0  0  0  0
 15 17  1  0  0  0  0
 15 21  1  0  0  0  0
 18 20  2  0  0  0  0
 19 20  1  0  0  0  0
M  END
> <DRUGBANK_ID>
DB00692

> <DRUG_GROUPS>
approved

> <GENERIC_NAME>
Phentolamine

> <SYNONYMS>
Fentolamina; Phentolamin; Phentolamine; Phentolaminum; Vesomax

> <SALTS>
Phentolamine Mesylate

> <BRANDS>
OraVerse; Regitin; Regitina; Regitine; Rogitine; Vigamed

> <CHEMICAL_FORMULA>
C17H19N3O

> <MOLECULAR_WEIGHT>
281.3523

> <EXACT_MASS>
281.152812245

> <IUPAC_NAME>
3-[(4,5-dihydro-1H-imidazol-2-ylmethyl)(4-methylphenyl)amino]phenol

> <IUPAC_TRADITIONAL_NAME>
phentolamine

> <INCHI_IDENTIFIER>
InChI=1S/C17H19N3O/c1-13-5-7-14(8-6-13)20(12-17-18-9-10-19-17)15-3-2-4-16(21)11-15/h2-8,11,21H,9-10,12H2,1H3,(H,18,19)

> <INCHI_KEY>
InChIKey=MRBDMNSDAVCSSF-UHFFFAOYSA-N

> <SMILES>
CC1=CC=C(C=C1)N(CC1=NCCN1)C1=CC(O)=CC=C1

> <JCHEM_ACCEPTOR_COUNT>
4

> <JCHEM_DONOR_COUNT>
2

> <JCHEM_ACIDIC_PKA>
9.78

> <JCHEM_BASIC_PKA>
9.02

> <JCHEM_PHYSIOLOGICAL_CHARGE>
1

> <ALOGPS_LOGP>
2.91

> <JCHEM_LOGP>
2.52

> <ALOGPS_LOGS>
-3

> <JCHEM_POLARIZABILITY>
31.37

> <JCHEM_POLAR_SURFACE_AREA>
47.86

> <JCHEM_REFRACTIVITY>
84.25

> <JCHEM_ROTATABLE_BOND_COUNT>
4

> <ALOGPS_SOLUBILITY>
2.72e-01 g/l __ 

$$$$
