
  Mrv0541 09251317272D          

 25 26  0  0  0  0            999 V2000
   -3.4473    0.0884    0.0000 N   0  0  0  0  0  0  0  0  0  0  0  0
   -4.1618   -0.3241    0.0000 C   0  0  0  0  0  0  0  0  0  0  0  0
   -4.1618   -1.1491    0.0000 C   0  0  0  0  0  0  0  0  0  0  0  0
   -3.4473   -1.5616    0.0000 C   0  0  0  0  0  0  0  0  0  0  0  0
   -2.7329   -1.1491    0.0000 C   0  0  0  0  0  0  0  0  0  0  0  0
   -2.7329   -0.3241    0.0000 C   0  0  0  0  0  0  0  0  0  0  0  0
   -2.0184    0.0884    0.0000 C   0  0  0  0  0  0  0  0  0  0  0  0
   -1.3039   -0.3241    0.0000 C   0  0  0  0  0  0  0  0  0  0  0  0
   -0.5894    0.0884    0.0000 C   0  0  0  0  0  0  0  0  0  0  0  0
    0.1250   -0.3241    0.0000 N   0  0  0  0  0  0  0  0  0  0  0  0
    0.8395    0.0884    0.0000 C   0  0  0  0  0  0  0  0  0  0  0  0
    1.5540   -0.3241    0.0000 C   0  0  0  0  0  0  0  0  0  0  0  0
    0.8395    0.9134    0.0000 C   0  0  0  0  0  0  0  0  0  0  0  0
    0.1250   -1.1491    0.0000 C   0  0  0  0  0  0  0  0  0  0  0  0
   -0.5894   -1.5616    0.0000 C   0  0  0  0  0  0  0  0  0  0  0  0
    0.8395   -1.5616    0.0000 C   0  0  0  0  0  0  0  0  0  0  0  0
   -2.0184    0.9134    0.0000 C   0  0  0  0  0  0  0  0  0  0  0  0
   -1.3039    1.3259    0.0000 N   0  0  0  0  0  0  0  0  0  0  0  0
   -1.9889   -2.1214    0.0000 C   0  0  0  0  0  0  0  0  0  0  0  0
   -2.7329    1.3259    0.0000 O   0  0  0  0  0  0  0  0  0  0  0  0
   -2.7033   -2.5339    0.0000 C   0  0  0  0  0  0  0  0  0  0  0  0
   -2.7033   -3.3589    0.0000 C   0  0  0  0  0  0  0  0  0  0  0  0
   -1.9889   -3.7715    0.0000 C   0  0  0  0  0  0  0  0  0  0  0  0
   -1.2745   -3.3589    0.0000 C   0  0  0  0  0  0  0  0  0  0  0  0
   -1.2745   -2.5339    0.0000 C   0  0  0  0  0  0  0  0  0  0  0  0
  1  2  1  0  0  0  0
  1  6  2  0  0  0  0
  2  3  2  0  0  0  0
  3  4  1  0  0  0  0
  4  5  2  0  0  0  0
  5  6  1  0  0  0  0
  6  7  1  0  0  0  0
  7  8  1  0  0  0  0
  8  9  1  0  0  0  0
  9 10  1  0  0  0  0
 10 11  1  0  0  0  0
 11 12  1  0  0  0  0
 11 13  1  0  0  0  0
 10 14  1  0  0  0  0
 14 15  1  0  0  0  0
 14 16  1  0  0  0  0
  7 17  1  0  0  0  0
 17 18  1  0  0  0  0
  7 19  1  0  0  0  0
 17 20  2  0  0  0  0
 19 21  2  0  0  0  0
 19 25  1  0  0  0  0
 21 22  1  0  0  0  0
 22 23  2  0  0  0  0
 23 24  1  0  0  0  0
 24 25  2  0  0  0  0
M  END
> <DRUGBANK_ID>
DB00280

> <DRUG_GROUPS>
approved

> <GENERIC_NAME>
Disopyramide

> <SYNONYMS>
Disopiramida; Disopyramidum

> <SALTS>
Disopyramide phosphate

> <BRANDS>
Dicorantil; Isorythm; Lispine; Norpace; Ritmodan; Rythmodan

> <CHEMICAL_FORMULA>
C21H29N3O

> <MOLECULAR_WEIGHT>
339.4745

> <EXACT_MASS>
339.231062565

> <IUPAC_NAME>
4-[bis(propan-2-yl)amino]-2-phenyl-2-(pyridin-2-yl)butanamide

> <IUPAC_TRADITIONAL_NAME>
disopyramide

> <INCHI_IDENTIFIER>
InChI=1/C21H29N3O/c1-16(2)24(17(3)4)15-13-21(20(22)25,18-10-6-5-7-11-18)19-12-8-9-14-23-19/h5-12,14,16-17H,13,15H2,1-4H3,(H2,22,25)

> <INCHI_KEY>
InChIKey=UVTNFZQICZKOEM-UHFFFAOYNA-N

> <SMILES>
CC(C)N(CCC(C(N)=O)(C1=CC=CC=C1)C1=NC=CC=C1)C(C)C

> <JCHEM_ACCEPTOR_COUNT>
3

> <JCHEM_DONOR_COUNT>
1

> <JCHEM_ACIDIC_PKA>
16.19

> <JCHEM_BASIC_PKA>
10.42

> <JCHEM_PHYSIOLOGICAL_CHARGE>
1

> <ALOGPS_LOGP>
3.21

> <JCHEM_LOGP>
3.47

> <ALOGPS_LOGS>
-3.8

> <JCHEM_POLARIZABILITY>
38.82

> <JCHEM_POLAR_SURFACE_AREA>
59.22

> <JCHEM_REFRACTIVITY>
102.3

> <JCHEM_ROTATABLE_BOND_COUNT>
8

> <ALOGPS_SOLUBILITY>
4.93e-02 g/l __ 

$$$$
