127
  Mrv0541 02231214272D          

 14 13  0  0  0  0            999 V2000
    4.9504    0.2063    0.0000 N   0  0  0  0  0  0  0  0  0  0  0  0
    8.5226   -0.2063    0.0000 N   0  0  0  0  0  0  0  0  0  0  0  0
    2.0928    0.2063    0.0000 N   0  0  0  0  0  0  0  0  0  0  0  0
   11.3804   -0.2063    0.0000 N   0  0  0  0  0  0  0  0  0  0  0  0
    6.3793    0.2063    0.0000 C   0  0  0  0  0  0  0  0  0  0  0  0
    7.0938   -0.2063    0.0000 C   0  0  0  0  0  0  0  0  0  0  0  0
    5.6650   -0.2063    0.0000 C   0  0  0  0  0  0  0  0  0  0  0  0
    7.8082    0.2063    0.0000 C   0  0  0  0  0  0  0  0  0  0  0  0
    4.2361   -0.2063    0.0000 C   0  0  0  0  0  0  0  0  0  0  0  0
    9.2371    0.2063    0.0000 C   0  0  0  0  0  0  0  0  0  0  0  0
    3.5217    0.2063    0.0000 C   0  0  0  0  0  0  0  0  0  0  0  0
    9.9515   -0.2063    0.0000 C   0  0  0  0  0  0  0  0  0  0  0  0
    2.8072   -0.2063    0.0000 C   0  0  0  0  0  0  0  0  0  0  0  0
   10.6658    0.2063    0.0000 C   0  0  0  0  0  0  0  0  0  0  0  0
  1  7  1  0  0  0  0
  1  9  1  0  0  0  0
  2  8  1  0  0  0  0
  2 10  1  0  0  0  0
  3 13  1  0  0  0  0
  4 14  1  0  0  0  0
  5  6  1  0  0  0  0
  5  7  1  0  0  0  0
  6  8  1  0  0  0  0
  9 11  1  0  0  0  0
 10 12  1  0  0  0  0
 11 13  1  0  0  0  0
 12 14  1  0  0  0  0
M  END
> <DRUGBANK_ID>
DB00127

> <DRUG_GROUPS>
approved; nutraceutical

> <GENERIC_NAME>
Spermine

> <SYNONYMS>
4,9-Diaza-1,12-dodecanediamine; 4,9-Diazadodecane-1,12-diamine; N,N'-Bis(3-aminopropyl)-1,4-butanediamine

> <SALTS>
Spermine dihydrate

> <CHEMICAL_FORMULA>
C10H26N4

> <MOLECULAR_WEIGHT>
202.3402

> <EXACT_MASS>
202.215746852

> <IUPAC_NAME>
(3-aminopropyl)({4-[(3-aminopropyl)amino]butyl})amine

> <IUPAC_TRADITIONAL_NAME>
spermine

> <INCHI_IDENTIFIER>
InChI=1S/C10H26N4/c11-5-3-9-13-7-1-2-8-14-10-4-6-12/h13-14H,1-12H2

> <INCHI_KEY>
InChIKey=PFNFFQXMRSDOHW-UHFFFAOYSA-N

> <SMILES>
NCCCNCCCCNCCCN

> <JCHEM_ACCEPTOR_COUNT>
4

> <JCHEM_DONOR_COUNT>
4

> <JCHEM_BASIC_PKA>
11.1

> <JCHEM_PHYSIOLOGICAL_CHARGE>
4

> <ALOGPS_LOGP>
-0.66

> <JCHEM_LOGP>
-1.5

> <ALOGPS_LOGS>
-2

> <JCHEM_POLARIZABILITY>
26.69

> <JCHEM_POLAR_SURFACE_AREA>
76.1

> <JCHEM_REFRACTIVITY>
62.56

> <JCHEM_ROTATABLE_BOND_COUNT>
11

> <ALOGPS_SOLUBILITY>
2.19e+00 g/l __ 

$$$$
