479
  Mrv0541 02231214422D          

 40 42  0  0  1  0            999 V2000
    5.6655    1.5226    0.0000 O   0  0  0  0  0  0  0  0  0  0  0  0
    7.0944   -0.9525    0.0000 O   0  0  0  0  0  0  0  0  0  0  0  0
    7.0944    0.6976    0.0000 O   0  0  0  0  0  0  0  0  0  0  0  0
    7.0944    1.5226    0.0000 O   0  0  0  0  0  0  0  0  0  0  0  0
    7.0945   -2.3814    0.0000 O   0  0  0  0  0  0  0  0  0  0  0  0
    5.6655    3.1726    0.0000 O   0  0  0  0  0  0  0  0  0  0  0  0
    8.7444   -0.9525    0.0000 O   0  0  0  0  0  0  0  0  0  0  0  0
    8.5234    3.1726    0.0000 O   0  0  0  0  0  0  0  0  0  0  0  0
    9.5695   -2.3814    0.0000 O   0  0  0  0  0  0  0  0  0  0  0  0
    8.7445   -3.8103    0.0000 O   0  0  0  0  0  0  0  0  0  0  0  0
    2.8075    0.6976    0.0000 O   0  0  0  0  0  0  0  0  0  0  0  0
    8.5234    0.6976    0.0000 O   0  0  0  0  0  0  0  0  0  0  0  0
    4.2365   -0.9525    0.0000 O   0  0  0  0  0  0  0  0  0  0  0  0
    4.2365    0.6976    0.0000 N   0  0  0  0  0  0  0  0  0  0  0  0
    5.6655   -1.7775    0.0000 N   0  0  0  0  0  0  0  0  0  0  0  0
    7.0944    3.9976    0.0000 N   0  0  0  0  0  0  0  0  0  0  0  0
    6.2694   -3.8104    0.0000 N   0  0  0  0  0  0  0  0  0  0  0  0
    2.0930   -2.1900    0.0000 N   0  0  0  0  0  0  0  0  0  0  0  0
    5.6655    0.6976    0.0000 C   0  0  1  0  0  0  0  0  0  0  0  0
    6.3799   -0.5400    0.0000 C   0  0  1  0  0  0  0  0  0  0  0  0
    4.9509    0.2850    0.0000 C   0  0  1  0  0  0  0  0  0  0  0  0
    6.3799    0.2850    0.0000 C   0  0  2  0  0  0  0  0  0  0  0  0
    5.6655   -0.9525    0.0000 C   0  0  2  0  0  0  0  0  0  0  0  0
    4.9509   -0.5400    0.0000 C   0  0  0  0  0  0  0  0  0  0  0  0
    6.3799    1.9351    0.0000 C   0  0  1  0  0  0  0  0  0  0  0  0
    7.5070   -1.6669    0.0000 C   0  0  1  0  0  0  0  0  0  0  0  0
    6.3799    2.7601    0.0000 C   0  0  1  0  0  0  0  0  0  0  0  0
    7.0944    3.1726    0.0000 C   0  0  2  0  0  0  0  0  0  0  0  0
    8.3319   -1.6669    0.0000 C   0  0  1  0  0  0  0  0  0  0  0  0
    7.8089    2.7601    0.0000 C   0  0  1  0  0  0  0  0  0  0  0  0
    8.7444   -2.3814    0.0000 C   0  0  2  0  0  0  0  0  0  0  0  0
    7.8089    1.9351    0.0000 C   0  0  1  0  0  0  0  0  0  0  0  0
    8.3320   -3.0959    0.0000 C   0  0  1  0  0  0  0  0  0  0  0  0
    7.5070   -3.0959    0.0000 C   0  0  1  0  0  0  0  0  0  0  0  0
    3.5220    0.2850    0.0000 C   0  0  0  0  0  0  0  0  0  0  0  0
    8.5234    1.5226    0.0000 C   0  0  0  0  0  0  0  0  0  0  0  0
    7.0945   -3.8104    0.0000 C   0  0  0  0  0  0  0  0  0  0  0  0
    3.5220   -0.5400    0.0000 C   0  0  2  0  0  0  0  0  0  0  0  0
    2.8075   -0.9525    0.0000 C   0  0  0  0  0  0  0  0  0  0  0  0
    2.8075   -1.7775    0.0000 C   0  0  0  0  0  0  0  0  0  0  0  0
 19  1  1  6  0  0  0
 25  1  1  6  0  0  0
 20  2  1  6  0  0  0
 26  2  1  6  0  0  0
 22  3  1  1  0  0  0
  4 25  1  0  0  0  0
  4 32  1  0  0  0  0
  5 26  1  0  0  0  0
  5 34  1  0  0  0  0
 27  6  1  6  0  0  0
 29  7  1  6  0  0  0
 30  8  1  6  0  0  0
 31  9  1  1  0  0  0
 33 10  1  6  0  0  0
 11 35  2  0  0  0  0
 12 36  1  0  0  0  0
 38 13  1  1  0  0  0
 21 14  1  1  0  0  0
 14 35  1  0  0  0  0
 23 15  1  1  0  0  0
 28 16  1  1  0  0  0
 17 37  1  0  0  0  0
 18 40  1  0  0  0  0
 19 21  1  0  0  0  0
 19 22  1  0  0  0  0
 20 22  1  0  0  0  0
 20 23  1  0  0  0  0
 21 24  1  0  0  0  0
 23 24  1  0  0  0  0
 25 27  1  0  0  0  0
 26 29  1  0  0  0  0
 27 28  1  0  0  0  0
 28 30  1  0  0  0  0
 29 31  1  0  0  0  0
 30 32  1  0  0  0  0
 31 33  1  0  0  0  0
 32 36  1  1  0  0  0
 33 34  1  0  0  0  0
 34 37  1  1  0  0  0
 35 38  1  0  0  0  0
 38 39  1  0  0  0  0
 39 40  1  0  0  0  0
M  END
> <DRUGBANK_ID>
DB00479

> <DRUG_GROUPS>
approved

> <GENERIC_NAME>
Amikacin

> <SYNONYMS>
Amikacin; Amikacina; Amikacine; Amikacinum

> <SALTS>
Amikacin Sulfate

> <BRANDS>
Amexel; Amikin; Amukin; Biklin; Erkacin; Farcyclin; Flexelite; Kamin; Novamin; Selaxa; Selemycin; Sikacin; Tipkin; Tybikin; Ukaject; Unikin; Uzix; Xylanal

> <CHEMICAL_FORMULA>
C22H43N5O13

> <MOLECULAR_WEIGHT>
585.6025

> <EXACT_MASS>
585.285736487

> <IUPAC_NAME>
(2S)-4-amino-N-[(1R,2S,3S,4R,5S)-5-amino-2-{[(2S,3R,4S,5S,6R)-4-amino-3,5-dihydroxy-6-(hydroxymethyl)oxan-2-yl]oxy}-4-{[(2R,3R,4S,5S,6R)-6-(aminomethyl)-3,4,5-trihydroxyoxan-2-yl]oxy}-3-hydroxycyclohexyl]-2-hydroxybutanamide

> <IUPAC_TRADITIONAL_NAME>
amikacin

> <INCHI_IDENTIFIER>
InChI=1S/C22H43N5O13/c23-2-1-8(29)20(36)27-7-3-6(25)18(39-22-16(34)15(33)13(31)9(4-24)37-22)17(35)19(7)40-21-14(32)11(26)12(30)10(5-28)38-21/h6-19,21-22,28-35H,1-5,23-26H2,(H,27,36)/t6-,7+,8-,9+,10+,11-,12+,13+,14+,15-,16+,17-,18+,19-,21+,22+/m0/s1

> <INCHI_KEY>
InChIKey=LKCWBDHBTVXHDL-RMDFUYIESA-N

> <SMILES>
NCC[C@H](O)C(=O)N[C@@H]1C[C@H](N)[C@@H](O[C@H]2O[C@H](CN)[C@@H](O)[C@H](O)[C@H]2O)[C@H](O)[C@H]1O[C@H]1O[C@H](CO)[C@@H](O)[C@H](N)[C@H]1O

> <JCHEM_ACCEPTOR_COUNT>
17

> <JCHEM_DONOR_COUNT>
13

> <JCHEM_ACIDIC_PKA>
12.1

> <JCHEM_BASIC_PKA>
9.79

> <JCHEM_PHYSIOLOGICAL_CHARGE>
4

> <ALOGPS_LOGP>
-3.2

> <JCHEM_LOGP>
-8.6

> <ALOGPS_LOGS>
-1.1

> <JCHEM_POLARIZABILITY>
58.2

> <JCHEM_POLAR_SURFACE_AREA>
331.94

> <JCHEM_REFRACTIVITY>
129.84

> <JCHEM_ROTATABLE_BOND_COUNT>
10

> <ALOGPS_SOLUBILITY>
4.97e+01 g/l __ 

$$$$
