828
  Mrv0541 02231215022D          

  8  8  0  0  1  0            999 V2000
    3.6020    0.0231    0.0000 P   0  0  0  0  0  0  0  0  0  0  0  0
    2.0625    0.4356    0.0000 O   0  0  0  0  0  0  0  0  0  0  0  0
    4.4270    0.0231    0.0000 O   0  0  0  0  0  0  0  0  0  0  0  0
    3.6020    0.8481    0.0000 O   0  0  0  0  0  0  0  0  0  0  0  0
    3.6020   -0.8019    0.0000 O   0  0  0  0  0  0  0  0  0  0  0  0
    2.7770    0.0231    0.0000 C   0  0  1  0  0  0  0  0  0  0  0  0
    2.0625   -0.3894    0.0000 C   0  0  2  0  0  0  0  0  0  0  0  0
    1.6500   -1.1039    0.0000 C   0  0  0  0  0  0  0  0  0  0  0  0
  1  3  1  0  0  0  0
  1  4  1  0  0  0  0
  1  5  2  0  0  0  0
  1  6  1  0  0  0  0
  6  2  1  6  0  0  0
  2  7  1  0  0  0  0
  6  7  1  0  0  0  0
  7  8  1  6  0  0  0
M  END
> <DRUGBANK_ID>
DB00828

> <DRUG_GROUPS>
approved

> <GENERIC_NAME>
Fosfomycin

> <SYNONYMS>
Fosfocina; Phosphomycin; Phosphonomycin

> <SALTS>
Fosfomycin calcium monohydrate; Fosfomycin disodium; Fosfomycin tromethamine

> <BRANDS>
Monurol; Veramina

> <CHEMICAL_FORMULA>
C3H7O4P

> <MOLECULAR_WEIGHT>
138.059

> <EXACT_MASS>
138.008195224

> <IUPAC_NAME>
[(2R,3S)-3-methyloxiran-2-yl]phosphonic acid

> <IUPAC_TRADITIONAL_NAME>
(2R,3S)-3-methyloxiran-2-ylphosphonic acid

> <INCHI_IDENTIFIER>
InChI=1S/C3H7O4P/c1-2-3(7-2)8(4,5)6/h2-3H,1H3,(H2,4,5,6)/t2-,3+/m0/s1

> <INCHI_KEY>
InChIKey=YMDXZJFXQJVXBF-STHAYSLISA-N

> <SMILES>
C[C@@H]1O[C@@H]1P(O)(O)=O

> <JCHEM_ACCEPTOR_COUNT>
4

> <JCHEM_DONOR_COUNT>
2

> <JCHEM_ACIDIC_PKA>
1.25

> <JCHEM_BASIC_PKA>
-4.3

> <JCHEM_PHYSIOLOGICAL_CHARGE>
-1

> <ALOGPS_LOGP>
-0.86

> <JCHEM_LOGP>
-0.74

> <ALOGPS_LOGS>
-0.47

> <JCHEM_POLARIZABILITY>
10.8

> <JCHEM_POLAR_SURFACE_AREA>
70.06

> <JCHEM_REFRACTIVITY>
25.87

> <JCHEM_ROTATABLE_BOND_COUNT>
1

> <ALOGPS_SOLUBILITY>
4.69e+01 g/l __ 

$$$$
