972
  Mrv0541 02231215082D          

 27 30  0  0  1  0            999 V2000
    2.0447   -3.0338    0.0000 Cl   0  0  0  0  0  0  0  0  0  0  0  0
    4.9026    1.9162    0.0000 O    0  0  0  0  0  0  0  0  0  0  0  0
    2.1147    2.3521    0.0000 N    0  0  0  0  0  0  0  0  0  0  0  0
    4.1881    0.6787    0.0000 N    0  0  0  0  0  0  0  0  0  0  0  0
    4.1881   -0.1463    0.0000 N    0  0  0  0  0  0  0  0  0  0  0  0
    3.4737    1.0912    0.0000 C    0  0  0  0  0  0  0  0  0  0  0  0
    2.7920    0.6265    0.0000 C    0  0  0  0  0  0  0  0  0  0  0  0
    3.5353    1.9139    0.0000 C    0  0  0  0  0  0  0  0  0  0  0  0
    2.0037    0.8696    0.0000 C    0  0  0  0  0  0  0  0  0  0  0  0
    2.9306    2.4751    0.0000 C    0  0  0  0  0  0  0  0  0  0  0  0
    1.7022    1.6376    0.0000 C    0  0  0  0  0  0  0  0  0  0  0  0
    4.9026    1.0912    0.0000 C    0  0  0  0  0  0  0  0  0  0  0  0
    1.6500    3.0338    0.0000 C    0  0  0  0  0  0  0  0  0  0  0  0
    5.6170    0.6787    0.0000 C    0  0  0  0  0  0  0  0  0  0  0  0
    4.9026   -0.5588    0.0000 C    0  0  0  0  0  0  0  0  0  0  0  0
    5.6170   -0.1463    0.0000 C    0  0  0  0  0  0  0  0  0  0  0  0
    4.9026   -1.3838    0.0000 C    0  0  0  0  0  0  0  0  0  0  0  0
    6.3546    1.1199    0.0000 C    0  0  0  0  0  0  0  0  0  0  0  0
    6.3546   -0.5873    0.0000 C    0  0  0  0  0  0  0  0  0  0  0  0
    4.1881   -1.7963    0.0000 C    0  0  0  0  0  0  0  0  0  0  0  0
    7.1021    0.6959    0.0000 C    0  0  0  0  0  0  0  0  0  0  0  0
    7.1021   -0.1634    0.0000 C    0  0  0  0  0  0  0  0  0  0  0  0
    4.1881   -2.6213    0.0000 C    0  0  0  0  0  0  0  0  0  0  0  0
    3.4737   -1.3838    0.0000 C    0  0  0  0  0  0  0  0  0  0  0  0
    3.4737   -3.0338    0.0000 C    0  0  0  0  0  0  0  0  0  0  0  0
    2.7591   -1.7963    0.0000 C    0  0  0  0  0  0  0  0  0  0  0  0
    2.7591   -2.6213    0.0000 C    0  0  0  0  0  0  0  0  0  0  0  0
  1 27  1  0  0  0  0
  2 12  2  0  0  0  0
  3 10  1  0  0  0  0
  3 11  1  0  0  0  0
  3 13  1  0  0  0  0
  4  5  1  0  0  0  0
  4  6  1  0  0  0  0
  4 12  1  0  0  0  0
  5 15  2  0  0  0  0
  6  7  1  0  0  0  0
  6  8  1  0  0  0  0
  7  9  1  0  0  0  0
  8 10  1  0  0  0  0
  9 11  1  0  0  0  0
 12 14  1  0  0  0  0
 14 16  1  0  0  0  0
 14 18  2  0  0  0  0
 15 16  1  0  0  0  0
 15 17  1  0  0  0  0
 16 19  2  0  0  0  0
 17 20  1  0  0  0  0
 18 21  1  0  0  0  0
 19 22  1  0  0  0  0
 20 23  2  0  0  0  0
 20 24  1  0  0  0  0
 21 22  2  0  0  0  0
 23 25  1  0  0  0  0
 24 26  2  0  0  0  0
 25 27  2  0  0  0  0
 26 27  1  0  0  0  0
M  END
> <DRUGBANK_ID>
DB00972

> <DRUG_GROUPS>
approved

> <GENERIC_NAME>
Azelastine

> <SYNONYMS>
Azelastina; Azelastinum

> <SALTS>
Azelastine Hydrochloride

> <BRANDS>


> <CHEMICAL_FORMULA>
C22H24ClN3O

> <MOLECULAR_WEIGHT>
381.898

> <EXACT_MASS>
381.160790112

> <IUPAC_NAME>
4-[(4-chlorophenyl)methyl]-2-(1-methylazepan-4-yl)-1,2-dihydrophthalazin-1-one

> <IUPAC_TRADITIONAL_NAME>
azelastine

> <INCHI_IDENTIFIER>
InChI=1S/C22H24ClN3O/c1-25-13-4-5-18(12-14-25)26-22(27)20-7-3-2-6-19(20)21(24-26)15-16-8-10-17(23)11-9-16/h2-3,6-11,18H,4-5,12-15H2,1H3

> <INCHI_KEY>
InChIKey=MBUVEWMHONZEQD-UHFFFAOYSA-N

> <SMILES>
CN1CCCC(CC1)N1N=C(CC2=CC=C(Cl)C=C2)C2=CC=CC=C2C1=O

> <JCHEM_ACCEPTOR_COUNT>
3

> <JCHEM_DONOR_COUNT>
0

> <JCHEM_BASIC_PKA>
8.88

> <JCHEM_PHYSIOLOGICAL_CHARGE>
1

> <ALOGPS_LOGP>
3.81

> <JCHEM_LOGP>
4.04

> <ALOGPS_LOGS>
-4.6

> <JCHEM_POLARIZABILITY>
41.54

> <JCHEM_POLAR_SURFACE_AREA>
35.91

> <JCHEM_REFRACTIVITY>
110.52

> <JCHEM_ROTATABLE_BOND_COUNT>
3

> <ALOGPS_SOLUBILITY>
9.20e-03 g/l __ 

$$$$
