420
  Mrv0541 02231214402D          

 20 22  0  0  0  0            999 V2000
    3.6958   -2.3626    0.0000 S   0  0  0  0  0  0  0  0  0  0  0  0
    3.6958   -0.7784    0.0000 N   0  0  0  0  0  0  0  0  0  0  0  0
    5.0678    1.5979    0.0000 N   0  0  0  0  0  0  0  0  0  0  0  0
    3.6958    0.0137    0.0000 C   0  0  0  0  0  0  0  0  0  0  0  0
    4.3819    0.4097    0.0000 C   0  0  0  0  0  0  0  0  0  0  0  0
    4.3819    1.2018    0.0000 C   0  0  0  0  0  0  0  0  0  0  0  0
    4.3819   -1.1744    0.0000 C   0  0  0  0  0  0  0  0  0  0  0  0
    3.0099   -1.1744    0.0000 C   0  0  0  0  0  0  0  0  0  0  0  0
    4.3819   -1.9665    0.0000 C   0  0  0  0  0  0  0  0  0  0  0  0
    3.0099   -1.9665    0.0000 C   0  0  0  0  0  0  0  0  0  0  0  0
    5.0899   -0.7508    0.0000 C   0  0  0  0  0  0  0  0  0  0  0  0
    2.3019   -0.7508    0.0000 C   0  0  0  0  0  0  0  0  0  0  0  0
    5.0899   -2.3899    0.0000 C   0  0  0  0  0  0  0  0  0  0  0  0
    2.3019   -2.3899    0.0000 C   0  0  0  0  0  0  0  0  0  0  0  0
    5.7537    1.2018    0.0000 C   0  0  0  0  0  0  0  0  0  0  0  0
    5.0678    2.3899    0.0000 C   0  0  0  0  0  0  0  0  0  0  0  0
    5.8076   -1.1579    0.0000 C   0  0  0  0  0  0  0  0  0  0  0  0
    1.5842   -1.1579    0.0000 C   0  0  0  0  0  0  0  0  0  0  0  0
    5.8076   -1.9830    0.0000 C   0  0  0  0  0  0  0  0  0  0  0  0
    1.5842   -1.9830    0.0000 C   0  0  0  0  0  0  0  0  0  0  0  0
  1  9  1  0  0  0  0
  1 10  1  0  0  0  0
  2  4  1  0  0  0  0
  2  7  1  0  0  0  0
  2  8  1  0  0  0  0
  3  6  1  0  0  0  0
  3 15  1  0  0  0  0
  3 16  1  0  0  0  0
  4  5  1  0  0  0  0
  5  6  1  0  0  0  0
  7  9  1  0  0  0  0
  7 11  2  0  0  0  0
  8 10  1  0  0  0  0
  8 12  2  0  0  0  0
  9 13  2  0  0  0  0
 10 14  2  0  0  0  0
 11 17  1  0  0  0  0
 12 18  1  0  0  0  0
 13 19  1  0  0  0  0
 14 20  1  0  0  0  0
 17 19  2  0  0  0  0
 18 20  2  0  0  0  0
M  END
> <DRUGBANK_ID>
DB00420

> <DRUG_GROUPS>
approved

> <GENERIC_NAME>
Promazine

> <SYNONYMS>
Promazina

> <SALTS>
Promazine Hydrochloride

> <BRANDS>


> <CHEMICAL_FORMULA>
C17H20N2S

> <MOLECULAR_WEIGHT>
284.419

> <EXACT_MASS>
284.13471934

> <IUPAC_NAME>
dimethyl[3-(10H-phenothiazin-10-yl)propyl]amine

> <IUPAC_TRADITIONAL_NAME>
promazine

> <INCHI_IDENTIFIER>
InChI=1S/C17H20N2S/c1-18(2)12-7-13-19-14-8-3-5-10-16(14)20-17-11-6-4-9-15(17)19/h3-6,8-11H,7,12-13H2,1-2H3

> <INCHI_KEY>
InChIKey=ZGUGWUXLJSTTMA-UHFFFAOYSA-N

> <SMILES>
CN(C)CCCN1C2=CC=CC=C2SC2=CC=CC=C12

> <JCHEM_ACCEPTOR_COUNT>
2

> <JCHEM_DONOR_COUNT>
0

> <JCHEM_BASIC_PKA>
9.2

> <JCHEM_PHYSIOLOGICAL_CHARGE>
1

> <ALOGPS_LOGP>
4.63

> <JCHEM_LOGP>
3.93

> <ALOGPS_LOGS>
-4.1

> <JCHEM_POLARIZABILITY>
32.74

> <JCHEM_POLAR_SURFACE_AREA>
6.48

> <JCHEM_REFRACTIVITY>
88.95

> <JCHEM_ROTATABLE_BOND_COUNT>
4

> <ALOGPS_SOLUBILITY>
2.07e-02 g/l __ 

$$$$
