663
  Mrv0541 09201117172D          

 71 74  0  0  1  0            999 V2000
    4.1401   -0.5206    0.0000 F   0  0  0  0  0  0  0  0  0  0  0  0
    4.6604   -3.6848    0.0000 F   0  0  0  0  0  0  0  0  0  0  0  0
    6.6264    0.7089    0.0000 O   0  0  0  0  0  0  0  0  0  0  0  0
    3.9559    0.0850    0.0000 O   0  0  0  0  0  0  0  0  0  0  0  0
    8.3015    0.0708    0.0000 O   0  0  0  0  0  0  0  0  0  0  0  0
    8.1318    1.7121    0.0000 O   0  0  0  0  0  0  0  0  0  0  0  0
    1.6500   -2.8458    0.0000 O   0  0  0  0  0  0  0  0  0  0  0  0
    7.2939    2.8696    0.0000 O   0  0  0  0  0  0  0  0  0  0  0  0
    6.0994   -0.3275    0.0000 C   0  0  1  0  0  0  0  0  0  0  0  0
    6.0994   -1.1525    0.0000 C   0  0  2  0  0  0  0  0  0  0  0  0
    5.3850   -1.5651    0.0000 C   0  0  1  0  0  0  0  0  0  0  0  0
    4.6704   -1.1525    0.0000 C   0  0  1  0  0  0  0  0  0  0  0  0
    6.8800   -0.0761    0.0000 C   0  0  1  0  0  0  0  0  0  0  0  0
    6.8800   -1.4040    0.0000 C   0  0  0  0  0  0  0  0  0  0  0  0
    5.3850    0.0850    0.0000 C   0  0  0  0  0  0  0  0  0  0  0  0
    7.3615   -0.7400    0.0000 C   0  0  1  0  0  0  0  0  0  0  0  0
    4.6704   -0.3275    0.0000 C   0  0  2  0  0  0  0  0  0  0  0  0
    3.9196   -1.5707    0.0000 C   0  0  1  0  0  0  0  0  0  0  0  0
    5.3982   -2.4243    0.0000 C   0  0  0  0  0  0  0  0  0  0  0  0
    6.0994    0.4975    0.0000 C   0  0  0  0  0  0  0  0  0  0  0  0
    4.6573   -2.8597    0.0000 C   0  0  1  0  0  0  0  0  0  0  0  0
    3.9130   -2.4301    0.0000 C   0  0  0  0  0  0  0  0  0  0  0  0
    7.5483    0.4076    0.0000 C   0  0  0  0  0  0  0  0  0  0  0  0
    8.1865   -0.7400    0.0000 C   0  0  0  0  0  0  0  0  0  0  0  0
    3.6435   -0.7933    0.0000 C   0  0  0  0  0  0  0  0  0  0  0  0
    3.1550   -1.1054    0.0000 C   0  0  0  0  0  0  0  0  0  0  0  0
    3.1413   -2.8836    0.0000 C   0  0  0  0  0  0  0  0  0  0  0  0
    7.4635    1.2283    0.0000 C   0  0  0  0  0  0  0  0  0  0  0  0
    2.3730   -1.5409    0.0000 C   0  0  0  0  0  0  0  0  0  0  0  0
    2.3661   -2.4360    0.0000 C   0  0  0  0  0  0  0  0  0  0  0  0
    8.0470    2.5327    0.0000 C   0  0  0  0  0  0  0  0  0  0  0  0
    8.7153    3.0165    0.0000 C   0  0  0  0  0  0  0  0  0  0  0  0
    9.1991    2.3482    0.0000 C   0  0  0  0  0  0  0  0  0  0  0  0
    8.2315    3.6848    0.0000 C   0  0  0  0  0  0  0  0  0  0  0  0
    9.3835    3.5002    0.0000 C   0  0  0  0  0  0  0  0  0  0  0  0
    6.1692   -1.8088    0.0000 H   0  0  0  0  0  0  0  0  0  0  0  0
    5.9590   -1.8907    0.0000 H   0  0  0  0  0  0  0  0  0  0  0  0
    7.3234   -1.6591    0.0000 H   0  0  0  0  0  0  0  0  0  0  0  0
    6.6730   -1.8717    0.0000 H   0  0  0  0  0  0  0  0  0  0  0  0
    5.0561    0.4768    0.0000 H   0  0  0  0  0  0  0  0  0  0  0  0
    5.7137    0.4768    0.0000 H   0  0  0  0  0  0  0  0  0  0  0  0
    7.5939   -1.1957    0.0000 H   0  0  0  0  0  0  0  0  0  0  0  0
    4.6704    0.1840    0.0000 H   0  0  0  0  0  0  0  0  0  0  0  0
    5.9008   -2.3290    0.0000 H   0  0  0  0  0  0  0  0  0  0  0  0
    5.5780   -2.9031    0.0000 H   0  0  0  0  0  0  0  0  0  0  0  0
    6.6109    0.4975    0.0000 H   0  0  0  0  0  0  0  0  0  0  0  0
    6.0994    1.0090    0.0000 H   0  0  0  0  0  0  0  0  0  0  0  0
    5.5879    0.4975    0.0000 H   0  0  0  0  0  0  0  0  0  0  0  0
    4.0863   -3.1908    0.0000 H   0  0  0  0  0  0  0  0  0  0  0  0
    8.1865   -1.2515    0.0000 H   0  0  0  0  0  0  0  0  0  0  0  0
    8.6980   -0.7400    0.0000 H   0  0  0  0  0  0  0  0  0  0  0  0
    8.1865   -0.2285    0.0000 H   0  0  0  0  0  0  0  0  0  0  0  0
    4.1255   -0.6221    0.0000 H   0  0  0  0  0  0  0  0  0  0  0  0
    3.4722   -0.3114    0.0000 H   0  0  0  0  0  0  0  0  0  0  0  0
    3.1615   -0.9645    0.0000 H   0  0  0  0  0  0  0  0  0  0  0  0
    6.9694    1.0884    0.0000 H   0  0  0  0  0  0  0  0  0  0  0  0
    3.1648   -0.5939    0.0000 H   0  0  0  0  0  0  0  0  0  0  0  0
    3.9559    0.5965    0.0000 H   0  0  0  0  0  0  0  0  0  0  0  0
    3.1433   -3.3951    0.0000 H   0  0  0  0  0  0  0  0  0  0  0  0
    7.2401    1.6884    0.0000 H   0  0  0  0  0  0  0  0  0  0  0  0
    6.9716    1.0881    0.0000 H   0  0  0  0  0  0  0  0  0  0  0  0
    1.9330   -1.2801    0.0000 H   0  0  0  0  0  0  0  0  0  0  0  0
    8.7848    2.0483    0.0000 H   0  0  0  0  0  0  0  0  0  0  0  0
    9.4990    1.9338    0.0000 H   0  0  0  0  0  0  0  0  0  0  0  0
    9.6134    2.6481    0.0000 H   0  0  0  0  0  0  0  0  0  0  0  0
    7.8172    3.3848    0.0000 H   0  0  0  0  0  0  0  0  0  0  0  0
    7.9315    4.0991    0.0000 H   0  0  0  0  0  0  0  0  0  0  0  0
    8.6458    3.9847    0.0000 H   0  0  0  0  0  0  0  0  0  0  0  0
    9.0837    3.9146    0.0000 H   0  0  0  0  0  0  0  0  0  0  0  0
    9.7979    3.8002    0.0000 H   0  0  0  0  0  0  0  0  0  0  0  0
    9.6835    3.0859    0.0000 H   0  0  0  0  0  0  0  0  0  0  0  0
 12  1  1  6  0  0  0
 21  2  1  6  0  0  0
 13  3  1  6  0  0  0
  3 56  1  0  0  0  0
 17  4  1  1  0  0  0
  4 58  1  0  0  0  0
  5 23  2  0  0  0  0
  6 28  1  0  0  0  0
  6 31  1  0  0  0  0
  7 30  2  0  0  0  0
  8 31  2  0  0  0  0
  9 10  1  0  0  0  0
  9 13  1  0  0  0  0
  9 15  1  0  0  0  0
  9 20  1  1  0  0  0
 10 11  1  0  0  0  0
 10 14  1  0  0  0  0
 10 36  1  6  0  0  0
 11 12  1  0  0  0  0
 11 19  1  0  0  0  0
 11 37  1  1  0  0  0
 12 17  1  0  0  0  0
 12 18  1  0  0  0  0
 13 16  1  0  0  0  0
 13 23  1  0  0  0  0
 14 16  1  0  0  0  0
 14 38  1  0  0  0  0
 14 39  1  0  0  0  0
 15 17  1  0  0  0  0
 15 40  1  0  0  0  0
 15 41  1  0  0  0  0
 16 24  1  6  0  0  0
 16 42  1  1  0  0  0
 17 43  1  6  0  0  0
 18 22  1  0  0  0  0
 18 25  1  1  0  0  0
 18 26  1  0  0  0  0
 19 21  1  0  0  0  0
 19 44  1  0  0  0  0
 19 45  1  0  0  0  0
 20 46  1  0  0  0  0
 20 47  1  0  0  0  0
 20 48  1  0  0  0  0
 21 22  1  0  0  0  0
 21 49  1  1  0  0  0
 22 27  2  0  0  0  0
 23 28  1  0  0  0  0
 24 50  1  0  0  0  0
 24 51  1  0  0  0  0
 24 52  1  0  0  0  0
 25 53  1  0  0  0  0
 25 54  1  0  0  0  0
 25 55  1  0  0  0  0
 26 29  2  0  0  0  0
 26 57  1  0  0  0  0
 27 30  1  0  0  0  0
 27 59  1  0  0  0  0
 28 60  1  0  0  0  0
 28 61  1  0  0  0  0
 29 30  1  0  0  0  0
 29 62  1  0  0  0  0
 31 32  1  0  0  0  0
 32 33  1  0  0  0  0
 32 34  1  0  0  0  0
 32 35  1  0  0  0  0
 33 63  1  0  0  0  0
 33 64  1  0  0  0  0
 33 65  1  0  0  0  0
 34 66  1  0  0  0  0
 34 67  1  0  0  0  0
 34 68  1  0  0  0  0
 35 69  1  0  0  0  0
 35 70  1  0  0  0  0
 35 71  1  0  0  0  0
M  END
> <DRUGBANK_ID>
DB00663

> <DRUG_GROUPS>
approved

> <GENERIC_NAME>
Flumethasone Pivalate

> <SYNONYMS>
Flumetason; Flumetasona; FlumÃ©tasone; Flumetasonum

> <SALTS>
Flumetasone Pivalate

> <BRANDS>
Cerson; Locacorten; Locorten; Testohgen

> <CHEMICAL_FORMULA>
C27H36F2O6

> <MOLECULAR_WEIGHT>
494.5679

> <EXACT_MASS>
494.247995294

> <IUPAC_NAME>
2-[(1R,2S,8S,10S,11S,13R,14R,15S,17S)-1,8-difluoro-14,17-dihydroxy-2,13,15-trimethyl-5-oxotetracyclo[8.7.0.0^{2,7}.0^{11,15}]heptadeca-3,6-dien-14-yl]-2-oxoethyl 2,2-dimethylpropanoate

> <IUPAC_TRADITIONAL_NAME>
flumethasone pivalate

> <INCHI_IDENTIFIER>
InChI=1S/C27H36F2O6/c1-14-9-16-17-11-19(28)18-10-15(30)7-8-24(18,5)26(17,29)20(31)12-25(16,6)27(14,34)21(32)13-35-22(33)23(2,3)4/h7-8,10,14,16-17,19-20,31,34H,9,11-13H2,1-6H3/t14-,16+,17+,19+,20+,24+,25+,26+,27+/m1/s1

> <INCHI_KEY>
InChIKey=JWRMHDSINXPDHB-OJAGFMMFSA-N

> <SMILES>
C[C@@H]1C[C@H]2[C@@H]3C[C@H](F)C4=CC(=O)C=C[C@]4(C)[C@@]3(F)[C@@H](O)C[C@]2(C)[C@@]1(O)C(=O)COC(=O)C(C)(C)C

> <JCHEM_ACCEPTOR_COUNT>
5

> <JCHEM_DONOR_COUNT>
2

> <JCHEM_ACIDIC_PKA>
12.44

> <JCHEM_BASIC_PKA>
-3.4

> <JCHEM_PHYSIOLOGICAL_CHARGE>
0

> <ALOGPS_LOGP>
3.21

> <JCHEM_LOGP>
3.58

> <ALOGPS_LOGS>
-4.7

> <JCHEM_POLARIZABILITY>
50.96

> <JCHEM_POLAR_SURFACE_AREA>
100.9

> <JCHEM_REFRACTIVITY>
125.17

> <JCHEM_ROTATABLE_BOND_COUNT>
5

> <ALOGPS_SOLUBILITY>
1.07e-02 g/l __ 

$$$$
