
  Mrv0541 09241312552D          

 12 12  0  0  0  0            999 V2000
    0.7145   -0.4125    0.0000 C   0  0  0  0  0  0  0  0  0  0  0  0
    0.7145    0.4125    0.0000 C   0  0  0  0  0  0  0  0  0  0  0  0
    0.0000   -0.8250    0.0000 N   0  0  0  0  0  0  0  0  0  0  0  0
    0.0000    0.8250    0.0000 C   0  0  0  0  0  0  0  0  0  0  0  0
   -0.7145    0.4125    0.0000 C   0  0  0  0  0  0  0  0  0  0  0  0
   -0.7145   -0.4125    0.0000 C   0  0  0  0  0  0  0  0  0  0  0  0
    1.4289    0.8250    0.0000 C   0  0  0  0  0  0  0  0  0  0  0  0
    2.1434    0.4125    0.0000 O   0  0  0  0  0  0  0  0  0  0  0  0
   -1.4289   -0.8250    0.0000 C   0  0  0  0  0  0  0  0  0  0  0  0
   -1.4289    0.8250    0.0000 O   0  0  0  0  0  0  0  0  0  0  0  0
    0.0000    1.6500    0.0000 C   0  0  0  0  0  0  0  0  0  0  0  0
   -0.7145    2.0625    0.0000 O   0  0  0  0  0  0  0  0  0  0  0  0
  2  1  1  0  0  0  0
  7  2  1  0  0  0  0
  1  3  2  0  0  0  0
  4  2  2  0  0  0  0
 11  4  1  0  0  0  0
  5  4  1  0  0  0  0
 10  5  1  0  0  0  0
  6  3  1  0  0  0  0
  6  5  2  0  0  0  0
  9  6  1  0  0  0  0
  8  7  1  0  0  0  0
 11 12  1  0  0  0  0
M  END
> <DRUGBANK_ID>
DB00165

> <DRUG_GROUPS>
approved; nutraceutical

> <GENERIC_NAME>
Pyridoxine

> <SYNONYMS>
3-hydroxy-4,5-bis(hydroxymethyl)-2-methylpyridine; Pyridoxol; Vitamin B6

> <SALTS>
Pyridoxine hydrochloride

> <BRANDS>
Becilan; Beesix; Benadon; Bonasanit; Hexa-Betalin; Hexobion; Nestrex

> <CHEMICAL_FORMULA>
C8H11NO3

> <MOLECULAR_WEIGHT>
169.1778

> <EXACT_MASS>
169.073893223

> <IUPAC_NAME>
4,5-bis(hydroxymethyl)-2-methylpyridin-3-ol

> <IUPAC_TRADITIONAL_NAME>
pyridoxine

> <INCHI_IDENTIFIER>
InChI=1S/C8H11NO3/c1-5-8(12)7(4-11)6(3-10)2-9-5/h2,10-12H,3-4H2,1H3

> <INCHI_KEY>
InChIKey=LXNHXLLTXMVWPM-UHFFFAOYSA-N

> <SMILES>
CC1=C(O)C(CO)=C(CO)C=N1

> <JCHEM_ACCEPTOR_COUNT>
4

> <JCHEM_DONOR_COUNT>
3

> <JCHEM_ACIDIC_PKA>
9.4

> <JCHEM_BASIC_PKA>
5.58

> <JCHEM_PHYSIOLOGICAL_CHARGE>
0

> <ALOGPS_LOGP>
-0.57

> <JCHEM_LOGP>
-0.95

> <ALOGPS_LOGS>
-1

> <JCHEM_POLARIZABILITY>
17.11

> <JCHEM_POLAR_SURFACE_AREA>
73.58

> <JCHEM_REFRACTIVITY>
44.11

> <JCHEM_ROTATABLE_BOND_COUNT>
2

> <ALOGPS_SOLUBILITY>
1.61e+01 g/l __ 

$$$$
