
  Mrv0541 04191212142D          

124138  0  0  0  0            999 V2000
    4.1932   -6.8435    0.0000 C   0  0  0  0  0  0  0  0  0  0  0  0
    4.6775   -7.5113    0.0000 N   0  0  0  0  0  0  0  0  0  0  0  0
    3.4083   -7.0977    0.0000 C   0  0  0  0  0  0  0  0  0  0  0  0
    4.1920   -8.1783    0.0000 C   0  0  0  0  0  0  0  0  0  0  0  0
    3.4076   -7.9228    0.0000 C   0  0  0  0  0  0  0  0  0  0  0  0
    4.4488   -6.0590    0.0000 C   0  0  0  0  0  0  0  0  0  0  0  0
    4.4463   -8.9631    0.0000 C   0  0  0  0  0  0  0  0  0  0  0  0
    5.2307   -9.2188    0.0000 C   0  0  0  0  0  0  0  0  0  0  0  0
    5.8986   -8.7344    0.0000 N   0  0  0  0  0  0  0  0  0  0  0  0
    5.4850  -10.0035    0.0000 C   0  0  0  0  0  0  0  0  0  0  0  0
    6.5656   -9.2200    0.0000 C   0  0  0  0  0  0  0  0  0  0  0  0
    6.3101  -10.0043    0.0000 C   0  0  0  0  0  0  0  0  0  0  0  0
    7.3504   -8.9656    0.0000 C   0  0  0  0  0  0  0  0  0  0  0  0
    7.6054   -8.1811    0.0000 C   0  0  0  0  0  0  0  0  0  0  0  0
    7.1205   -7.5136    0.0000 N   0  0  0  0  0  0  0  0  0  0  0  0
    8.3900   -7.9261    0.0000 C   0  0  0  0  0  0  0  0  0  0  0  0
    7.6054   -6.8461    0.0000 C   0  0  0  0  0  0  0  0  0  0  0  0
    8.3900   -7.1011    0.0000 C   0  0  0  0  0  0  0  0  0  0  0  0
    7.3504   -6.0616    0.0000 C   0  0  0  0  0  0  0  0  0  0  0  0
    5.2332   -5.8035    0.0000 C   0  0  0  0  0  0  0  0  0  0  0  0
    5.9010   -6.2877    0.0000 N   0  0  0  0  0  0  0  0  0  0  0  0
    5.4875   -5.0185    0.0000 C   0  0  0  0  0  0  0  0  0  0  0  0
    6.5681   -5.8022    0.0000 C   0  0  0  0  0  0  0  0  0  0  0  0
    6.3126   -5.0179    0.0000 C   0  0  0  0  0  0  0  0  0  0  0  0
    9.1041   -6.6968    0.0000 C   0  0  0  0  0  0  0  0  0  0  0  0
    9.1041   -8.3368    0.0000 C   0  0  0  0  0  0  0  0  0  0  0  0
    2.6942   -6.6847    0.0000 C   0  0  0  0  0  0  0  0  0  0  0  0
    1.9793   -7.0965    0.0000 C   0  0  0  0  0  0  0  0  0  0  0  0
    2.6928   -8.3347    0.0000 C   0  0  0  0  0  0  0  0  0  0  0  0
    1.2651   -6.6835    0.0000 C   0  0  0  0  0  0  0  0  0  0  0  0
    0.5504   -7.0954    0.0000 O   0  0  0  0  0  0  0  0  0  0  0  0
    1.2658   -5.8585    0.0000 O   0  0  0  0  0  0  0  0  0  0  0  0
    6.7226  -10.7187    0.0000 C   0  0  0  0  0  0  0  0  0  0  0  0
    5.0726  -10.7188    0.0000 C   0  0  0  0  0  0  0  0  0  0  0  0
    6.7251   -4.3033    0.0000 C   0  0  0  0  0  0  0  0  0  0  0  0
    5.0751   -4.3033    0.0000 C   0  0  0  0  0  0  0  0  0  0  0  0
    9.1054   -9.1618    0.0000 C   0  0  0  0  0  0  0  0  0  0  0  0
    4.2501   -4.3033    0.0000 C   0  0  0  0  0  0  0  0  0  0  0  0
    3.8378   -3.5886    0.0000 C   0  0  0  0  0  0  0  0  0  0  0  0
    3.0128   -3.5884    0.0000 O   0  0  0  0  0  0  0  0  0  0  0  0
    4.2504   -2.8742    0.0000 O   0  0  0  0  0  0  0  0  0  0  0  0
   10.3148   -8.3208    0.0000 O   0  0  0  0  0  0  0  0  0  0  0  0
   14.3552   -8.1947    0.0000 C   0  0  0  0  0  0  0  0  0  0  0  0
   14.8396   -7.5268    0.0000 N   0  0  0  0  0  0  0  0  0  0  0  0
   13.5704   -7.9405    0.0000 C   0  0  0  0  0  0  0  0  0  0  0  0
   14.3541   -6.8598    0.0000 C   0  0  0  0  0  0  0  0  0  0  0  0
   13.5696   -7.1155    0.0000 C   0  0  0  0  0  0  0  0  0  0  0  0
   14.6109   -8.9792    0.0000 C   0  0  0  0  0  0  0  0  0  0  0  0
   14.6083   -6.0750    0.0000 C   0  0  0  0  0  0  0  0  0  0  0  0
   15.3927   -5.8195    0.0000 C   0  0  0  0  0  0  0  0  0  0  0  0
   16.0606   -6.3037    0.0000 N   0  0  0  0  0  0  0  0  0  0  0  0
   15.6470   -5.0345    0.0000 C   0  0  0  0  0  0  0  0  0  0  0  0
   16.7276   -5.8182    0.0000 C   0  0  0  0  0  0  0  0  0  0  0  0
   16.4721   -5.0339    0.0000 C   0  0  0  0  0  0  0  0  0  0  0  0
   17.5124   -6.0726    0.0000 C   0  0  0  0  0  0  0  0  0  0  0  0
   17.7674   -6.8572    0.0000 C   0  0  0  0  0  0  0  0  0  0  0  0
   17.2825   -7.5247    0.0000 N   0  0  0  0  0  0  0  0  0  0  0  0
   18.5520   -7.1121    0.0000 C   0  0  0  0  0  0  0  0  0  0  0  0
   17.7674   -8.1921    0.0000 C   0  0  0  0  0  0  0  0  0  0  0  0
   18.5520   -7.9372    0.0000 C   0  0  0  0  0  0  0  0  0  0  0  0
   17.5125   -8.9767    0.0000 C   0  0  0  0  0  0  0  0  0  0  0  0
   15.3952   -9.2347    0.0000 C   0  0  0  0  0  0  0  0  0  0  0  0
   16.0631   -8.7504    0.0000 N   0  0  0  0  0  0  0  0  0  0  0  0
   15.6495  -10.0196    0.0000 C   0  0  0  0  0  0  0  0  0  0  0  0
   16.7301   -9.2360    0.0000 C   0  0  0  0  0  0  0  0  0  0  0  0
   16.4746  -10.0203    0.0000 C   0  0  0  0  0  0  0  0  0  0  0  0
   19.2661   -8.3414    0.0000 C   0  0  0  0  0  0  0  0  0  0  0  0
   19.2661   -6.7013    0.0000 C   0  0  0  0  0  0  0  0  0  0  0  0
   12.8562   -8.3536    0.0000 C   0  0  0  0  0  0  0  0  0  0  0  0
   12.1413   -7.9416    0.0000 C   0  0  0  0  0  0  0  0  0  0  0  0
   12.8548   -6.7035    0.0000 C   0  0  0  0  0  0  0  0  0  0  0  0
   11.4272   -8.3546    0.0000 C   0  0  0  0  0  0  0  0  0  0  0  0
   11.4278   -9.1796    0.0000 O   0  0  0  0  0  0  0  0  0  0  0  0
   16.8846   -4.3195    0.0000 C   0  0  0  0  0  0  0  0  0  0  0  0
   15.2346   -4.3193    0.0000 C   0  0  0  0  0  0  0  0  0  0  0  0
   16.8871  -10.7349    0.0000 C   0  0  0  0  0  0  0  0  0  0  0  0
   15.2371  -10.7349    0.0000 C   0  0  0  0  0  0  0  0  0  0  0  0
   20.3772   -6.7092    0.0000 O   0  0  0  0  0  0  0  0  0  0  0  0
   19.2674   -5.8764    0.0000 C   0  0  0  0  0  0  0  0  0  0  0  0
   14.4121  -10.7350    0.0000 C   0  0  0  0  0  0  0  0  0  0  0  0
   13.9998  -11.4496    0.0000 C   0  0  0  0  0  0  0  0  0  0  0  0
   13.1748  -11.4499    0.0000 O   0  0  0  0  0  0  0  0  0  0  0  0
   14.4125  -12.1640    0.0000 O   0  0  0  0  0  0  0  0  0  0  0  0
   26.3996   -8.1751    0.0000 C   0  0  0  0  0  0  0  0  0  0  0  0
   25.9153   -7.5072    0.0000 N   0  0  0  0  0  0  0  0  0  0  0  0
   27.1845   -7.9209    0.0000 C   0  0  0  0  0  0  0  0  0  0  0  0
   26.4008   -6.8402    0.0000 C   0  0  0  0  0  0  0  0  0  0  0  0
   27.1852   -7.0959    0.0000 C   0  0  0  0  0  0  0  0  0  0  0  0
   26.1440   -8.9596    0.0000 C   0  0  0  0  0  0  0  0  0  0  0  0
   26.1466   -6.0554    0.0000 C   0  0  0  0  0  0  0  0  0  0  0  0
   25.3621   -5.7999    0.0000 C   0  0  0  0  0  0  0  0  0  0  0  0
   24.6943   -6.2841    0.0000 N   0  0  0  0  0  0  0  0  0  0  0  0
   25.1079   -5.0149    0.0000 C   0  0  0  0  0  0  0  0  0  0  0  0
   24.0273   -5.7986    0.0000 C   0  0  0  0  0  0  0  0  0  0  0  0
   24.2828   -5.0143    0.0000 C   0  0  0  0  0  0  0  0  0  0  0  0
   23.2425   -6.0530    0.0000 C   0  0  0  0  0  0  0  0  0  0  0  0
   22.9875   -6.8376    0.0000 C   0  0  0  0  0  0  0  0  0  0  0  0
   23.4724   -7.5051    0.0000 N   0  0  0  0  0  0  0  0  0  0  0  0
   22.2028   -7.0924    0.0000 C   0  0  0  0  0  0  0  0  0  0  0  0
   22.9875   -8.1725    0.0000 C   0  0  0  0  0  0  0  0  0  0  0  0
   22.2028   -7.9176    0.0000 C   0  0  0  0  0  0  0  0  0  0  0  0
   23.2424   -8.9571    0.0000 C   0  0  0  0  0  0  0  0  0  0  0  0
   25.3597   -9.2151    0.0000 C   0  0  0  0  0  0  0  0  0  0  0  0
   24.6918   -8.7308    0.0000 N   0  0  0  0  0  0  0  0  0  0  0  0
   25.1054  -10.0000    0.0000 C   0  0  0  0  0  0  0  0  0  0  0  0
   24.0248   -9.2164    0.0000 C   0  0  0  0  0  0  0  0  0  0  0  0
   24.2803  -10.0007    0.0000 C   0  0  0  0  0  0  0  0  0  0  0  0
   21.4888   -8.3218    0.0000 C   0  0  0  0  0  0  0  0  0  0  0  0
   21.4890   -6.6901    0.0000 C   0  0  0  0  0  0  0  0  0  0  0  0
   27.8987   -8.3340    0.0000 C   0  0  0  0  0  0  0  0  0  0  0  0
   28.6135   -7.9220    0.0000 C   0  0  0  0  0  0  0  0  0  0  0  0
   27.9001   -6.6839    0.0000 C   0  0  0  0  0  0  0  0  0  0  0  0
   29.3277   -8.3350    0.0000 C   0  0  0  0  0  0  0  0  0  0  0  0
   30.0425   -7.9232    0.0000 O   0  0  0  0  0  0  0  0  0  0  0  0
   29.3271   -9.1600    0.0000 O   0  0  0  0  0  0  0  0  0  0  0  0
   23.8703   -4.2999    0.0000 C   0  0  0  0  0  0  0  0  0  0  0  0
   25.5203   -4.2997    0.0000 C   0  0  0  0  0  0  0  0  0  0  0  0
   23.8678  -10.7152    0.0000 C   0  0  0  0  0  0  0  0  0  0  0  0
   25.5178  -10.7152    0.0000 C   0  0  0  0  0  0  0  0  0  0  0  0
   21.4875   -5.8567    0.0000 C   0  0  0  0  0  0  0  0  0  0  0  0
   26.3428  -10.7154    0.0000 C   0  0  0  0  0  0  0  0  0  0  0  0
   26.7551  -11.4300    0.0000 C   0  0  0  0  0  0  0  0  0  0  0  0
   27.5801  -11.4303    0.0000 O   0  0  0  0  0  0  0  0  0  0  0  0
   26.3424  -12.1444    0.0000 O   0  0  0  0  0  0  0  0  0  0  0  0
  2  1  1  0  0  0  0
  3  1  1  0  0  0  0
  4  2  1  0  0  0  0
  5  3  2  0  0  0  0
  5  4  1  0  0  0  0
  1  6  2  0  0  0  0
  4  7  2  0  0  0  0
  9  8  2  0  0  0  0
 10  8  1  0  0  0  0
 11  9  1  0  0  0  0
 12 10  2  0  0  0  0
 12 11  1  0  0  0  0
  8  7  1  0  0  0  0
 11 13  1  0  0  0  0
 15 14  1  0  0  0  0
 16 14  2  0  0  0  0
 17 15  1  0  0  0  0
 18 16  1  0  0  0  0
 18 17  2  0  0  0  0
 14 13  1  0  0  0  0
 17 19  1  0  0  0  0
 21 20  2  0  0  0  0
 22 20  1  0  0  0  0
 23 21  1  0  0  0  0
 24 22  2  0  0  0  0
 24 23  1  0  0  0  0
 20  6  1  0  0  0  0
 23 19  2  0  0  0  0
 18 25  1  0  0  0  0
 16 26  1  0  0  0  0
 27  3  1  0  0  0  0
 28 27  1  0  0  0  0
 29  5  1  0  0  0  0
 28 30  1  0  0  0  0
 30 31  1  0  0  0  0
 30 32  2  0  0  0  0
 12 33  1  0  0  0  0
 34 10  1  0  0  0  0
 24 35  1  0  0  0  0
 36 22  1  0  0  0  0
 26 37  1  0  0  0  0
 36 38  1  0  0  0  0
 38 39  1  0  0  0  0
 39 40  1  0  0  0  0
 39 41  2  0  0  0  0
 26 42  1  0  0  0  0
 44 43  1  0  0  0  0
 45 43  1  0  0  0  0
 46 44  1  0  0  0  0
 47 45  2  0  0  0  0
 47 46  1  0  0  0  0
 43 48  2  0  0  0  0
 46 49  2  0  0  0  0
 51 50  2  0  0  0  0
 52 50  1  0  0  0  0
 53 51  1  0  0  0  0
 54 52  2  0  0  0  0
 54 53  1  0  0  0  0
 50 49  1  0  0  0  0
 53 55  1  0  0  0  0
 57 56  1  0  0  0  0
 58 56  2  0  0  0  0
 59 57  1  0  0  0  0
 60 58  1  0  0  0  0
 60 59  2  0  0  0  0
 56 55  1  0  0  0  0
 59 61  1  0  0  0  0
 63 62  2  0  0  0  0
 64 62  1  0  0  0  0
 65 63  1  0  0  0  0
 66 64  2  0  0  0  0
 66 65  1  0  0  0  0
 62 48  1  0  0  0  0
 65 61  2  0  0  0  0
 60 67  1  0  0  0  0
 58 68  1  0  0  0  0
 69 45  1  0  0  0  0
 70 69  1  0  0  0  0
 71 47  1  0  0  0  0
 70 72  1  0  0  0  0
 72 73  2  0  0  0  0
 54 74  1  0  0  0  0
 75 52  1  0  0  0  0
 66 76  1  0  0  0  0
 77 64  1  0  0  0  0
 68 78  1  0  0  0  0
 68 79  1  0  0  0  0
 77 80  1  0  0  0  0
 80 81  1  0  0  0  0
 81 82  1  0  0  0  0
 81 83  2  0  0  0  0
 85 84  1  0  0  0  0
 86 84  1  0  0  0  0
 87 85  1  0  0  0  0
 88 86  2  0  0  0  0
 88 87  1  0  0  0  0
 84 89  2  0  0  0  0
 87 90  2  0  0  0  0
 92 91  2  0  0  0  0
 93 91  1  0  0  0  0
 94 92  1  0  0  0  0
 95 93  2  0  0  0  0
 95 94  1  0  0  0  0
 91 90  1  0  0  0  0
 94 96  1  0  0  0  0
 98 97  1  0  0  0  0
 99 97  2  0  0  0  0
100 98  1  0  0  0  0
101 99  1  0  0  0  0
101100  2  0  0  0  0
 97 96  1  0  0  0  0
100102  1  0  0  0  0
104103  2  0  0  0  0
105103  1  0  0  0  0
106104  1  0  0  0  0
107105  2  0  0  0  0
107106  1  0  0  0  0
103 89  1  0  0  0  0
106102  2  0  0  0  0
101108  1  0  0  0  0
 99109  1  0  0  0  0
110 86  1  0  0  0  0
111110  1  0  0  0  0
112 88  1  0  0  0  0
111113  1  0  0  0  0
113114  1  0  0  0  0
113115  2  0  0  0  0
 95116  1  0  0  0  0
117 93  1  0  0  0  0
107118  1  0  0  0  0
119105  1  0  0  0  0
109 78  1  0  0  0  0
109120  1  0  0  0  0
119121  1  0  0  0  0
121122  1  0  0  0  0
122123  1  0  0  0  0
122124  2  0  0  0  0
 72 42  1  0  0  0  0
M  END
> <DRUGBANK_ID>
DB00707

> <DRUG_GROUPS>
approved; investigational

> <GENERIC_NAME>
Porfimer

> <SYNONYMS>
Dihaematoporphyrin Ether; Dihematoporphyrin ether; Photofrin II; Porfimer natrium; Porfimer sodico; Porfimère sodique; Porfimerum natricum

> <SALTS>
Porfimer sodium

> <BRANDS>
PhotoBarr; Photofrin

> <CHEMICAL_FORMULA>
C99H110N12O13

> <MOLECULAR_WEIGHT>
1676.0053

> <EXACT_MASS>
1674.831531666

> <IUPAC_NAME>
3-{14-[1-({3-[14-(1-{1-[10,14-bis(2-carboxyethyl)-5,9,15,19,20-pentamethyl-21,22,23,24-tetraazapentacyclo[16.2.1.1^{3,6}.1^{8,11}.1^{13,16}]tetracosa-3,5,7,9,11(23),12,14,16,18(21),19-decaen-4-yl]ethoxy}ethyl)-20-(2-carboxyethyl)-5,9,10,15,19-pentamethyl-21,22,23,24-tetraazapentacyclo[16.2.1.1^{3,6}.1^{8,11}.1^{13,16}]tetracosa-1(21),2,4,6,8(23),9,13,15,17,19-decaen-4-yl]propanoyl}oxy)ethyl]-20-(2-carboxyethyl)-5,9,10,15,19-pentamethyl-21,22,23,24-tetraazapentacyclo[16.2.1.1^{3,6}.1^{8,11}.1^{13,16}]tetracosa-1(21),2,4,6,8(23),9,13,15,17,19-decaen-4-yl}propanoic acid

> <IUPAC_TRADITIONAL_NAME>
3-{14-[1-({3-[14-(1-{1-[10,14-bis(2-carboxyethyl)-5,9,15,19,20-pentamethyl-21,22,23,24-tetraazapentacyclo[16.2.1.1^{3,6}.1^{8,11}.1^{13,16}]tetracosa-3,5,7,9,11(23),12,14,16,18(21),19-decaen-4-yl]ethoxy}ethyl)-20-(2-carboxyethyl)-5,9,10,15,19-pentamethyl-21,22,23,24-tetraazapentacyclo[16.2.1.1^{3,6}.1^{8,11}.1^{13,16}]tetracosa-1(21),2,4,6,8(23),9,13,15,17,19-decaen-4-yl]propanoyl}oxy)ethyl]-20-(2-carboxyethyl)-5,9,10,15,19-pentamethyl-21,22,23,24-tetraazapentacyclo[16.2.1.1^{3,6}.1^{8,11}.1^{13,16}]tetracosa-1(21),2,4,6,8(23),9,13,15,17,19-decaen-4-yl}propanoic acid

> <INCHI_IDENTIFIER>
InChI=1S/C99H110N12O13/c1-43-46(4)70-37-88-97(55(13)79(109-88)34-76-51(9)63(21-27-93(116)117)84(106-76)40-82-61(19-25-91(112)113)49(7)73(103-82)31-67(43)100-70)58(16)123-59(17)98-56(14)80-35-77-53(11)65(23-29-95(120)121)86(108-77)42-87-66(54(12)75(105-87)33-69-44(2)47(5)71(101-69)38-89(98)110-80)24-30-96(122)124-60(18)99-57(15)81-36-78-52(10)64(22-28-94(118)119)85(107-78)41-83-62(20-26-92(114)115)50(8)74(104-83)32-68-45(3)48(6)72(102-68)39-90(99)111-81/h31-36,40-42,58-60,70-72,103-105,109-111H,19-30,37-39H2,1-18H3,(H,112,113)(H,114,115)(H,116,117)(H,118,119)(H,120,121)/b73-31-,74-32-,75-33-,76-34-,77-35-,78-36-,82-40-,83-41-,87-42-

> <INCHI_KEY>
InChIKey=NYQGMKORVNYSLZ-DZGUDHBZSA-N

> <JCHEM_ACCEPTOR_COUNT>
21

> <JCHEM_DONOR_COUNT>
11

> <JCHEM_LOGP>
5.55

> <JCHEM_POLARIZABILITY>
199.95

> <JCHEM_POLAR_SURFACE_AREA>
379.65

> <JCHEM_REFRACTIVITY>
496.6

> <JCHEM_ROTATABLE_BOND_COUNT>
25 __ 

$$$$
