811
  Mrv0541 02231215012D          

 17 18  0  0  1  0            999 V2000
    4.1496   -1.2476    0.0000 O   0  0  0  0  0  0  0  0  0  0  0  0
    2.0301   -0.9926    0.0000 O   0  0  0  0  0  0  0  0  0  0  0  0
    2.5847   -2.6996    0.0000 O   0  0  0  0  0  0  0  0  0  0  0  0
    5.2001   -2.6134    0.0000 O   0  0  0  0  0  0  0  0  0  0  0  0
    5.2001    1.9132    0.0000 O   0  0  0  0  0  0  0  0  0  0  0  0
    3.4822    0.0624    0.0000 N   0  0  0  0  0  0  0  0  0  0  0  0
    4.1496    0.5473    0.0000 N   0  0  0  0  0  0  0  0  0  0  0  0
    3.0697    1.3320    0.0000 N   0  0  0  0  0  0  0  0  0  0  0  0
    4.0441    2.7530    0.0000 N   0  0  0  0  0  0  0  0  0  0  0  0
    3.0697   -2.0322    0.0000 C   0  0  1  0  0  0  0  0  0  0  0  0
    2.8147   -1.2476    0.0000 C   0  0  2  0  0  0  0  0  0  0  0  0
    3.8947   -2.0322    0.0000 C   0  0  1  0  0  0  0  0  0  0  0  0
    3.4822   -0.7626    0.0000 C   0  0  1  0  0  0  0  0  0  0  0  0
    4.3796   -2.6996    0.0000 C   0  0  0  0  0  0  0  0  0  0  0  0
    2.8147    0.5473    0.0000 C   0  0  0  0  0  0  0  0  0  0  0  0
    3.8947    1.3320    0.0000 C   0  0  0  0  0  0  0  0  0  0  0  0
    4.3796    1.9994    0.0000 C   0  0  0  0  0  0  0  0  0  0  0  0
  1 12  1  0  0  0  0
  1 13  1  0  0  0  0
 11  2  1  1  0  0  0
 10  3  1  1  0  0  0
  4 14  1  0  0  0  0
  5 17  2  0  0  0  0
  6  7  1  0  0  0  0
 13  6  1  6  0  0  0
  6 15  1  0  0  0  0
  7 16  2  0  0  0  0
  8 15  2  0  0  0  0
  8 16  1  0  0  0  0
  9 17  1  0  0  0  0
 10 11  1  0  0  0  0
 10 12  1  0  0  0  0
 11 13  1  0  0  0  0
 12 14  1  6  0  0  0
 16 17  1  0  0  0  0
M  END
> <DRUGBANK_ID>
DB00811

> <DRUG_GROUPS>
approved

> <GENERIC_NAME>
Ribavirin

> <SYNONYMS>
Ribavirin; Ribavirina; Ribavirine; Ribavirinum; Tribavirin

> <BRANDS>
Copegus; Rebetol; Rebretron; Ribamide; Ribasphere; Vilona; Viramid; Virazide; Virazole

> <CHEMICAL_FORMULA>
C8H12N4O5

> <MOLECULAR_WEIGHT>
244.2047

> <EXACT_MASS>
244.080769514

> <IUPAC_NAME>
1-[(2R,3R,4S,5R)-3,4-dihydroxy-5-(hydroxymethyl)oxolan-2-yl]-1H-1,2,4-triazole-3-carboxamide

> <IUPAC_TRADITIONAL_NAME>
ribavirin

> <INCHI_IDENTIFIER>
InChI=1S/C8H12N4O5/c9-6(16)7-10-2-12(11-7)8-5(15)4(14)3(1-13)17-8/h2-5,8,13-15H,1H2,(H2,9,16)/t3-,4-,5-,8-/m1/s1

> <INCHI_KEY>
InChIKey=IWUCXVSUMQZMFG-AFCXAGJDSA-N

> <SMILES>
NC(=O)C1=NN(C=N1)[C@@H]1O[C@H](CO)[C@@H](O)[C@H]1O

> <JCHEM_ACCEPTOR_COUNT>
7

> <JCHEM_DONOR_COUNT>
4

> <JCHEM_ACIDIC_PKA>
11.88

> <JCHEM_BASIC_PKA>
-1.2

> <JCHEM_PHYSIOLOGICAL_CHARGE>
0

> <ALOGPS_LOGP>
-1.9

> <JCHEM_LOGP>
-2.8

> <ALOGPS_LOGS>
-0.87

> <JCHEM_POLARIZABILITY>
22.18

> <JCHEM_POLAR_SURFACE_AREA>
143.72

> <JCHEM_REFRACTIVITY>
64.57

> <JCHEM_ROTATABLE_BOND_COUNT>
3

> <ALOGPS_SOLUBILITY>
3.32e+01 g/l __ 

$$$$
