960
  Mrv0541 02231215082D          

 18 19  0  0  1  0            999 V2000
    4.5080   -0.4562    0.0000 O   0  0  0  0  0  0  0  0  0  0  0  0
    4.5080    1.1938    0.0000 O   0  0  0  0  0  0  0  0  0  0  0  0
    3.0791    2.0188    0.0000 N   0  0  0  0  0  0  0  0  0  0  0  0
    6.0031   -2.7702    0.0000 N   0  0  0  0  0  0  0  0  0  0  0  0
    3.7935    0.7813    0.0000 C   0  0  0  0  0  0  0  0  0  0  0  0
    3.0791    1.1938    0.0000 C   0  0  0  0  0  0  0  0  0  0  0  0
    2.3645    2.4313    0.0000 C   0  0  0  0  0  0  0  0  0  0  0  0
    3.7935   -0.0437    0.0000 C   0  0  0  0  0  0  0  0  0  0  0  0
    5.2224   -1.6938    0.0000 C   0  0  0  0  0  0  0  0  0  0  0  0
    4.5080   -1.2813    0.0000 C   0  0  0  0  0  0  0  0  0  0  0  0
    2.3645    3.2563    0.0000 C   0  0  0  0  0  0  0  0  0  0  0  0
    1.6500    2.0188    0.0000 C   0  0  0  0  0  0  0  0  0  0  0  0
    5.2224   -2.5188    0.0000 C   0  0  0  0  0  0  0  0  0  0  0  0
    6.0031   -1.4423    0.0000 C   0  0  0  0  0  0  0  0  0  0  0  0
    3.7935   -1.6938    0.0000 C   0  0  0  0  0  0  0  0  0  0  0  0
    4.5080   -2.9313    0.0000 C   0  0  0  0  0  0  0  0  0  0  0  0
    6.4846   -2.1063    0.0000 C   0  0  0  0  0  0  0  0  0  0  0  0
    3.7935   -2.5188    0.0000 C   0  0  0  0  0  0  0  0  0  0  0  0
  1  8  1  0  0  0  0
  1 10  1  0  0  0  0
  2  5  1  0  0  0  0
  3  6  1  0  0  0  0
  3  7  1  0  0  0  0
  4 13  1  0  0  0  0
  4 17  1  0  0  0  0
  5  6  1  0  0  0  0
  5  8  1  0  0  0  0
  7 11  1  0  0  0  0
  7 12  1  0  0  0  0
  9 10  1  0  0  0  0
  9 13  2  0  0  0  0
  9 14  1  0  0  0  0
 10 15  2  0  0  0  0
 13 16  1  0  0  0  0
 14 17  2  0  0  0  0
 15 18  1  0  0  0  0
 16 18  2  0  0  0  0
M  END
> <DRUGBANK_ID>
DB00960

> <DRUG_GROUPS>
approved

> <GENERIC_NAME>
Pindolol

> <BRANDS>
Betapindol; Blockin L; Blocklin L; Calvisken; Decreten; Durapindol; Glauco-Visken; Pectobloc; Pinbetol; Prinodolol; Pynastin; Visken

> <CHEMICAL_FORMULA>
C14H20N2O2

> <MOLECULAR_WEIGHT>
248.3208

> <EXACT_MASS>
248.152477894

> <IUPAC_NAME>
[2-hydroxy-3-(1H-indol-4-yloxy)propyl](propan-2-yl)amine

> <IUPAC_TRADITIONAL_NAME>
pindolol

> <INCHI_IDENTIFIER>
InChI=1S/C14H20N2O2/c1-10(2)16-8-11(17)9-18-14-5-3-4-13-12(14)6-7-15-13/h3-7,10-11,15-17H,8-9H2,1-2H3

> <INCHI_KEY>
InChIKey=JZQKKSLKJUAGIC-UHFFFAOYSA-N

> <SMILES>
CC(C)NCC(O)COC1=CC=CC2=C1C=CN2

> <JCHEM_ACCEPTOR_COUNT>
3

> <JCHEM_DONOR_COUNT>
3

> <JCHEM_ACIDIC_PKA>
14.09

> <JCHEM_BASIC_PKA>
9.67

> <JCHEM_PHYSIOLOGICAL_CHARGE>
1

> <ALOGPS_LOGP>
2.17

> <JCHEM_LOGP>
1.69

> <ALOGPS_LOGS>
-2.5

> <JCHEM_POLARIZABILITY>
28.27

> <JCHEM_POLAR_SURFACE_AREA>
57.28

> <JCHEM_REFRACTIVITY>
71.46

> <JCHEM_ROTATABLE_BOND_COUNT>
6

> <ALOGPS_SOLUBILITY>
8.61e-01 g/l __ 

$$$$
