891
  Mrv0541 02231215052D          

 17 18  0  0  0  0            999 V2000
    2.4751    0.5404    0.0000 S   0  0  0  0  0  0  0  0  0  0  0  0
    3.3001    0.5404    0.0000 O   0  0  0  0  0  0  0  0  0  0  0  0
    1.6500    0.5404    0.0000 O   0  0  0  0  0  0  0  0  0  0  0  0
    2.4751    1.3654    0.0000 N   0  0  0  0  0  0  0  0  0  0  0  0
    3.9041    1.3654    0.0000 N   0  0  0  0  0  0  0  0  0  0  0  0
    2.4751   -2.7597    0.0000 N   0  0  0  0  0  0  0  0  0  0  0  0
    2.4751   -0.2846    0.0000 C   0  0  0  0  0  0  0  0  0  0  0  0
    1.7606   -0.6971    0.0000 C   0  0  0  0  0  0  0  0  0  0  0  0
    3.1895   -0.6971    0.0000 C   0  0  0  0  0  0  0  0  0  0  0  0
    3.1895    1.7779    0.0000 C   0  0  0  0  0  0  0  0  0  0  0  0
    2.4751   -1.9347    0.0000 C   0  0  0  0  0  0  0  0  0  0  0  0
    1.7606   -1.5222    0.0000 C   0  0  0  0  0  0  0  0  0  0  0  0
    3.1895   -1.5222    0.0000 C   0  0  0  0  0  0  0  0  0  0  0  0
    3.1895    2.6029    0.0000 C   0  0  0  0  0  0  0  0  0  0  0  0
    3.9041    3.0154    0.0000 C   0  0  0  0  0  0  0  0  0  0  0  0
    4.6185    2.6029    0.0000 C   0  0  0  0  0  0  0  0  0  0  0  0
    4.6185    1.7779    0.0000 C   0  0  0  0  0  0  0  0  0  0  0  0
  1  2  2  0  0  0  0
  1  3  2  0  0  0  0
  1  4  1  0  0  0  0
  1  7  1  0  0  0  0
  4 10  1  0  0  0  0
  5 10  1  0  0  0  0
  5 17  2  0  0  0  0
  6 11  1  0  0  0  0
  7  8  2  0  0  0  0
  7  9  1  0  0  0  0
  8 12  1  0  0  0  0
  9 13  2  0  0  0  0
 10 14  2  0  0  0  0
 11 12  2  0  0  0  0
 11 13  1  0  0  0  0
 14 15  1  0  0  0  0
 15 16  2  0  0  0  0
 16 17  1  0  0  0  0
M  END
> <DRUGBANK_ID>
DB00891

> <DRUG_GROUPS>
approved

> <GENERIC_NAME>
Sulfapyridine

> <SYNONYMS>
Sulfapiridina; Sulfapyridin; Sulfapyridine; Sulfapyridinum; Sulphapyridine

> <CHEMICAL_FORMULA>
C11H11N3O2S

> <MOLECULAR_WEIGHT>
249.289

> <EXACT_MASS>
249.057197301

> <IUPAC_NAME>
4-amino-N-(pyridin-2-yl)benzene-1-sulfonamide

> <IUPAC_TRADITIONAL_NAME>
sulfapyridine

> <INCHI_IDENTIFIER>
InChI=1S/C11H11N3O2S/c12-9-4-6-10(7-5-9)17(15,16)14-11-3-1-2-8-13-11/h1-8H,12H2,(H,13,14)

> <INCHI_KEY>
InChIKey=GECHUMIMRBOMGK-UHFFFAOYSA-N

> <SMILES>
NC1=CC=C(C=C1)S(=O)(=O)NC1=CC=CC=N1

> <JCHEM_ACCEPTOR_COUNT>
4

> <JCHEM_DONOR_COUNT>
2

> <JCHEM_ACIDIC_PKA>
6.24

> <JCHEM_BASIC_PKA>
2.63

> <JCHEM_PHYSIOLOGICAL_CHARGE>
-1

> <ALOGPS_LOGP>
0.84

> <JCHEM_LOGP>
1.01

> <ALOGPS_LOGS>
-3

> <JCHEM_POLARIZABILITY>
24.97

> <JCHEM_POLAR_SURFACE_AREA>
85.08

> <JCHEM_REFRACTIVITY>
65.75

> <JCHEM_ROTATABLE_BOND_COUNT>
2

> <ALOGPS_SOLUBILITY>
2.35e-01 g/l __ 

$$$$
