763
  Mrv0541 02231214592D          

  7  7  0  0  0  0            999 V2000
    3.7697   -0.1992    0.0000 S   0  0  0  0  0  0  0  0  0  0  0  0
    2.3176   -0.4292    0.0000 N   0  0  0  0  0  0  0  0  0  0  0  0
    2.7301    0.8404    0.0000 N   0  0  0  0  0  0  0  0  0  0  0  0
    2.9850    0.0558    0.0000 C   0  0  0  0  0  0  0  0  0  0  0  0
    1.6501    0.0558    0.0000 C   0  0  0  0  0  0  0  0  0  0  0  0
    2.3176   -1.2542    0.0000 C   0  0  0  0  0  0  0  0  0  0  0  0
    1.9050    0.8404    0.0000 C   0  0  0  0  0  0  0  0  0  0  0  0
  1  4  2  0  0  0  0
  2  4  1  0  0  0  0
  2  5  1  0  0  0  0
  2  6  1  0  0  0  0
  3  4  1  0  0  0  0
  3  7  1  0  0  0  0
  5  7  2  0  0  0  0
M  END
> <DRUGBANK_ID>
DB00763

> <DRUG_GROUPS>
approved

> <GENERIC_NAME>
Methimazole

> <SYNONYMS>
Mercazolyl; Thiamazol; Thiamazole; Thiamazolum; Tiamazol

> <BRANDS>
Danantizol; Favistan; Metizol; Strumazol; Strumazole; Tapazole; Thacapzol; Thycapzol; Thyrozol; Tirozol

> <CHEMICAL_FORMULA>
C4H6N2S

> <MOLECULAR_WEIGHT>
114.169

> <EXACT_MASS>
114.025168892

> <IUPAC_NAME>
1-methyl-2,3-dihydro-1H-imidazole-2-thione

> <IUPAC_TRADITIONAL_NAME>
methimazole

> <INCHI_IDENTIFIER>
InChI=1S/C4H6N2S/c1-6-3-2-5-4(6)7/h2-3H,1H3,(H,5,7)

> <INCHI_KEY>
InChIKey=PMRYVIKBURPHAH-UHFFFAOYSA-N

> <SMILES>
CN1C=CNC1=S

> <JCHEM_ACCEPTOR_COUNT>
0

> <JCHEM_DONOR_COUNT>
1

> <JCHEM_ACIDIC_PKA>
10.41

> <JCHEM_BASIC_PKA>
-3

> <JCHEM_PHYSIOLOGICAL_CHARGE>
0

> <ALOGPS_LOGP>
-0.38

> <JCHEM_LOGP>
0.75

> <ALOGPS_LOGS>
-1

> <JCHEM_POLARIZABILITY>
11.64

> <JCHEM_POLAR_SURFACE_AREA>
15.27

> <JCHEM_REFRACTIVITY>
33.23

> <JCHEM_ROTATABLE_BOND_COUNT>
0

> <ALOGPS_SOLUBILITY>
1.13e+01 g/l __ 

$$$$
