3290
  Mrv0541 02231214392D          

 22 24  0  0  1  0            999 V2000
    3.6958   -2.3625    0.0000 S   0  0  0  0  0  0  0  0  0  0  0  0
    4.3818    1.2018    0.0000 N   0  0  0  0  0  0  0  0  0  0  0  0
    3.6958   -0.7783    0.0000 N   0  0  0  0  0  0  0  0  0  0  0  0
    4.3818    0.4098    0.0000 C   0  0  0  0  0  0  0  0  0  0  0  0
    3.6958    0.0137    0.0000 C   0  0  0  0  0  0  0  0  0  0  0  0
    5.0677    0.0137    0.0000 C   0  0  0  0  0  0  0  0  0  0  0  0
    5.0677    1.5979    0.0000 C   0  0  0  0  0  0  0  0  0  0  0  0
    3.6958    1.5979    0.0000 C   0  0  0  0  0  0  0  0  0  0  0  0
    4.3818   -1.1744    0.0000 C   0  0  0  0  0  0  0  0  0  0  0  0
    3.0099   -1.1744    0.0000 C   0  0  0  0  0  0  0  0  0  0  0  0
    4.3818   -1.9664    0.0000 C   0  0  0  0  0  0  0  0  0  0  0  0
    3.0099   -1.9664    0.0000 C   0  0  0  0  0  0  0  0  0  0  0  0
    5.0677    2.3899    0.0000 C   0  0  0  0  0  0  0  0  0  0  0  0
    3.6958    2.3899    0.0000 C   0  0  0  0  0  0  0  0  0  0  0  0
    2.3018   -0.7509    0.0000 C   0  0  0  0  0  0  0  0  0  0  0  0
    5.0899   -0.7509    0.0000 C   0  0  0  0  0  0  0  0  0  0  0  0
    5.0899   -2.3899    0.0000 C   0  0  0  0  0  0  0  0  0  0  0  0
    2.3018   -2.3899    0.0000 C   0  0  0  0  0  0  0  0  0  0  0  0
    1.5841   -1.1580    0.0000 C   0  0  0  0  0  0  0  0  0  0  0  0
    5.8075   -1.1580    0.0000 C   0  0  0  0  0  0  0  0  0  0  0  0
    1.5841   -1.9830    0.0000 C   0  0  0  0  0  0  0  0  0  0  0  0
    5.8075   -1.9830    0.0000 C   0  0  0  0  0  0  0  0  0  0  0  0
  1 11  1  0  0  0  0
  1 12  1  0  0  0  0
  2  4  1  0  0  0  0
  2  7  1  0  0  0  0
  2  8  1  0  0  0  0
  3  5  1  0  0  0  0
  3  9  1  0  0  0  0
  3 10  1  0  0  0  0
  4  5  1  0  0  0  0
  4  6  1  0  0  0  0
  7 13  1  0  0  0  0
  8 14  1  0  0  0  0
  9 11  1  0  0  0  0
  9 16  2  0  0  0  0
 10 12  1  0  0  0  0
 10 15  2  0  0  0  0
 11 17  2  0  0  0  0
 12 18  2  0  0  0  0
 15 19  1  0  0  0  0
 16 20  1  0  0  0  0
 17 22  1  0  0  0  0
 18 21  1  0  0  0  0
 19 21  2  0  0  0  0
 20 22  2  0  0  0  0
M  END
> <DRUGBANK_ID>
DB00392

> <DRUG_GROUPS>
approved

> <GENERIC_NAME>
Ethopropazine

> <SYNONYMS>
Profenamina; Profenamine; Profenaminum

> <SALTS>
Ethopropazine Hydrochloride

> <BRANDS>
Parkin; Parsidan; Parsidol

> <CHEMICAL_FORMULA>
C19H24N2S

> <MOLECULAR_WEIGHT>
312.472

> <EXACT_MASS>
312.166019468

> <IUPAC_NAME>
diethyl[1-(10H-phenothiazin-10-yl)propan-2-yl]amine

> <IUPAC_TRADITIONAL_NAME>
ethopropazine

> <INCHI_IDENTIFIER>
InChI=1S/C19H24N2S/c1-4-20(5-2)15(3)14-21-16-10-6-8-12-18(16)22-19-13-9-7-11-17(19)21/h6-13,15H,4-5,14H2,1-3H3

> <INCHI_KEY>
InChIKey=CDOZDBSBBXSXLB-UHFFFAOYSA-N

> <SMILES>
CCN(CC)C(C)CN1C2=CC=CC=C2SC2=CC=CC=C12

> <JCHEM_ACCEPTOR_COUNT>
2

> <JCHEM_DONOR_COUNT>
0

> <JCHEM_BASIC_PKA>
9.6

> <JCHEM_PHYSIOLOGICAL_CHARGE>
1

> <ALOGPS_LOGP>
5.75

> <JCHEM_LOGP>
5

> <ALOGPS_LOGS>
-4.8

> <JCHEM_POLARIZABILITY>
36.34

> <JCHEM_POLAR_SURFACE_AREA>
6.48

> <JCHEM_REFRACTIVITY>
98

> <JCHEM_ROTATABLE_BOND_COUNT>
5

> <ALOGPS_SOLUBILITY>
5.24e-03 g/l __ 

$$$$
