
  Mrv0541 04191212152D          

 21 23  0  0  0  0            999 V2000
   -3.1527    0.6777    0.0000 C   0  0  0  0  0  0  0  0  0  0  0  0
   -3.8671    0.2652    0.0000 C   0  0  0  0  0  0  0  0  0  0  0  0
   -3.8671   -0.5598    0.0000 C   0  0  0  0  0  0  0  0  0  0  0  0
   -3.1527   -0.9723    0.0000 C   0  0  0  0  0  0  0  0  0  0  0  0
   -2.4382   -0.5598    0.0000 C   0  0  0  0  0  0  0  0  0  0  0  0
   -2.4382    0.2652    0.0000 C   0  0  0  0  0  0  0  0  0  0  0  0
   -1.7237    0.6777    0.0000 O   0  0  0  0  0  0  0  0  0  0  0  0
   -1.7237   -0.9723    0.0000 C   0  0  0  0  0  0  0  0  0  0  0  0
   -1.0093   -0.5598    0.0000 C   0  0  0  0  0  0  0  0  0  0  0  0
   -1.0093    0.2652    0.0000 C   0  0  0  0  0  0  0  0  0  0  0  0
   -0.2948   -0.9723    0.0000 C   0  0  0  0  0  0  0  0  0  0  0  0
    0.4197   -0.5598    0.0000 C   0  0  0  0  0  0  0  0  0  0  0  0
    1.1341    0.6777    0.0000 C   0  0  0  0  0  0  0  0  0  0  0  0
    0.4197    0.2652    0.0000 C   0  0  0  0  0  0  0  0  0  0  0  0
    1.1341   -0.9723    0.0000 C   0  0  0  0  0  0  0  0  0  0  0  0
    1.8486   -0.5598    0.0000 C   0  0  0  0  0  0  0  0  0  0  0  0
    1.8486    0.2652    0.0000 C   0  0  0  0  0  0  0  0  0  0  0  0
   -0.2948   -1.7973    0.0000 C   0  0  0  0  0  0  0  0  0  0  0  0
    0.4197   -2.2098    0.0000 C   0  0  0  0  0  0  0  0  0  0  0  0
   -1.7237   -1.7973    0.0000 O   0  0  0  0  0  0  0  0  0  0  0  0
   -0.2948    0.6777    0.0000 O   0  0  0  0  0  0  0  0  0  0  0  0
  1  2  2  0  0  0  0
  1  6  1  0  0  0  0
  2  3  1  0  0  0  0
  3  4  2  0  0  0  0
  4  5  1  0  0  0  0
  7  6  1  0  0  0  0
  6  5  2  0  0  0  0
  5  8  1  0  0  0  0
  7 10  1  0  0  0  0
  8  9  2  0  0  0  0
  9 10  1  0  0  0  0
  9 11  1  0  0  0  0
 11 12  1  0  0  0  0
 14 12  2  0  0  0  0
 12 15  1  0  0  0  0
 13 14  1  0  0  0  0
 13 17  2  0  0  0  0
 15 16  2  0  0  0  0
 16 17  1  0  0  0  0
 11 18  1  0  0  0  0
 18 19  1  0  0  0  0
  8 20  1  0  0  0  0
 10 21  2  0  0  0  0
M  END
> <DRUGBANK_ID>
DB00946

> <DRUG_GROUPS>
approved

> <GENERIC_NAME>
Phenprocoumon

> <SYNONYMS>
Fenprocumone; Phenprocoumarol; Phenprocoumarole; Phenprocoumone; Phenprocumone

> <BRANDS>


> <CHEMICAL_FORMULA>
C18H16O3

> <MOLECULAR_WEIGHT>
280.3178

> <EXACT_MASS>
280.109944378

> <IUPAC_NAME>
4-hydroxy-3-(1-phenylpropyl)-2H-chromen-2-one

> <IUPAC_TRADITIONAL_NAME>
phenprocoumon

> <INCHI_IDENTIFIER>
InChI=1S/C18H16O3/c1-2-13(12-8-4-3-5-9-12)16-17(19)14-10-6-7-11-15(14)21-18(16)20/h3-11,13,19H,2H2,1H3

> <INCHI_KEY>
InChIKey=DQDAYGNAKTZFIW-UHFFFAOYSA-N

> <SMILES>
CCC(C1=CC=CC=C1)C1=C(O)C2=C(OC1=O)C=CC=C2

> <JCHEM_ACCEPTOR_COUNT>
2

> <JCHEM_DONOR_COUNT>
1

> <JCHEM_ACIDIC_PKA>
6.44

> <JCHEM_BASIC_PKA>
-6.5

> <JCHEM_PHYSIOLOGICAL_CHARGE>
-1

> <ALOGPS_LOGP>
3.81

> <JCHEM_LOGP>
3.74

> <ALOGPS_LOGS>
-3.8

> <JCHEM_POLARIZABILITY>
29.92

> <JCHEM_POLAR_SURFACE_AREA>
46.53

> <JCHEM_REFRACTIVITY>
81.64

> <JCHEM_ROTATABLE_BOND_COUNT>
3

> <ALOGPS_SOLUBILITY>
4.86e-02 g/l __ 

$$$$
