38521
  Mrv0541 02231214322D          

 15 16  0  0  1  0            999 V2000
    3.7850   -0.0593    0.0000 O   0  0  0  0  0  0  0  0  0  0  0  0
    3.7850   -1.3942    0.0000 O   0  0  0  0  0  0  0  0  0  0  0  0
    5.9908   -0.1648    0.0000 N   0  0  0  0  0  0  0  0  0  0  0  0
    7.4120   -0.0155    0.0000 N   0  0  0  0  0  0  0  0  0  0  0  0
    6.5720    1.1406    0.0000 N   0  0  0  0  0  0  0  0  0  0  0  0
    3.3001   -0.7268    0.0000 C   0  0  0  0  0  0  0  0  0  0  0  0
    2.8876   -1.4412    0.0000 C   0  0  0  0  0  0  0  0  0  0  0  0
    2.8876   -0.0123    0.0000 C   0  0  0  0  0  0  0  0  0  0  0  0
    2.0625   -0.0123    0.0000 C   0  0  0  0  0  0  0  0  0  0  0  0
    2.0625   -1.4412    0.0000 C   0  0  0  0  0  0  0  0  0  0  0  0
    1.6500   -0.7268    0.0000 C   0  0  0  0  0  0  0  0  0  0  0  0
    4.5696   -0.3142    0.0000 C   0  0  0  0  0  0  0  0  0  0  0  0
    4.5696   -1.1393    0.0000 C   0  0  0  0  0  0  0  0  0  0  0  0
    5.2371    0.1707    0.0000 C   0  0  0  0  0  0  0  0  0  0  0  0
    6.6582    0.3201    0.0000 C   0  0  0  0  0  0  0  0  0  0  0  0
  1  6  1  0  0  0  0
  1 12  1  0  0  0  0
  2  6  1  0  0  0  0
  2 13  1  0  0  0  0
  3 14  1  0  0  0  0
  3 15  2  0  0  0  0
  4 15  1  0  0  0  0
  5 15  1  0  0  0  0
  6  7  1  0  0  0  0
  6  8  1  0  0  0  0
  7 10  1  0  0  0  0
  8  9  1  0  0  0  0
  9 11  1  0  0  0  0
 10 11  1  0  0  0  0
 12 13  1  0  0  0  0
 12 14  1  0  0  0  0
M  END
> <DRUGBANK_ID>
DB00226

> <DRUG_GROUPS>
approved

> <GENERIC_NAME>
Guanadrel

> <SYNONYMS>
Guanadrelum

> <SALTS>
Guanadrel sulfate

> <BRANDS>
Hylorel

> <CHEMICAL_FORMULA>
C10H19N3O2

> <MOLECULAR_WEIGHT>
213.2768

> <EXACT_MASS>
213.147726867

> <IUPAC_NAME>
2-{1,4-dioxaspiro[4.5]decan-2-ylmethyl}guanidine

> <IUPAC_TRADITIONAL_NAME>
guanadrel

> <INCHI_IDENTIFIER>
InChI=1S/C10H19N3O2/c11-9(12)13-6-8-7-14-10(15-8)4-2-1-3-5-10/h8H,1-7H2,(H4,11,12,13)

> <INCHI_KEY>
InChIKey=HPBNRIOWIXYZFK-UHFFFAOYSA-N

> <SMILES>
NC(N)=NCC1COC2(CCCCC2)O1

> <JCHEM_ACCEPTOR_COUNT>
5

> <JCHEM_DONOR_COUNT>
2

> <JCHEM_ACIDIC_PKA>
19.85

> <JCHEM_BASIC_PKA>
12.56

> <JCHEM_PHYSIOLOGICAL_CHARGE>
1

> <ALOGPS_LOGP>
0.03

> <JCHEM_LOGP>
0.62

> <ALOGPS_LOGS>
-2

> <JCHEM_POLARIZABILITY>
23.23

> <JCHEM_POLAR_SURFACE_AREA>
82.86

> <JCHEM_REFRACTIVITY>
56.54

> <JCHEM_ROTATABLE_BOND_COUNT>
2

> <ALOGPS_SOLUBILITY>
1.93e+00 g/l __ 

$$$$
