485
  Mrv0541 02231214432D          

 31 34  0  0  1  0            999 V2000
    2.3014    1.9919    0.0000 Cl   0  0  0  0  0  0  0  0  0  0  0  0
    3.8529   -0.4082    0.0000 Cl   0  0  0  0  0  0  0  0  0  0  0  0
    8.1633    0.6613    0.0000 S    0  0  0  0  0  0  0  0  0  0  0  0
    5.9646   -1.0066    0.0000 O    0  0  0  0  0  0  0  0  0  0  0  0
    7.8661   -2.0713    0.0000 O    0  0  0  0  0  0  0  0  0  0  0  0
    9.2251   -1.6297    0.0000 O    0  0  0  0  0  0  0  0  0  0  0  0
    4.9521   -0.0139    0.0000 O    0  0  0  0  0  0  0  0  0  0  0  0
    3.9815    2.5577    0.0000 O    0  0  0  0  0  0  0  0  0  0  0  0
    7.3786   -0.4186    0.0000 N    0  0  0  0  0  0  0  0  0  0  0  0
    5.9646    0.9944    0.0000 N    0  0  0  0  0  0  0  0  0  0  0  0
    3.3970    1.9756    0.0000 N    0  0  0  0  0  0  0  0  0  0  0  0
    7.3786    0.4064    0.0000 C    0  0  1  0  0  0  0  0  0  0  0  0
    8.6481   -0.0061    0.0000 C    0  0  0  0  0  0  0  0  0  0  0  0
    8.1633   -0.6735    0.0000 C    0  0  2  0  0  0  0  0  0  0  0  0
    6.5468    0.4099    0.0000 C    0  0  1  0  0  0  0  0  0  0  0  0
    6.5468   -0.4220    0.0000 C    0  0  0  0  0  0  0  0  0  0  0  0
    9.3156    0.4788    0.0000 C    0  0  0  0  0  0  0  0  0  0  0  0
    9.3156   -0.4910    0.0000 C    0  0  0  0  0  0  0  0  0  0  0  0
    8.4182   -1.4581    0.0000 C    0  0  0  0  0  0  0  0  0  0  0  0
    5.1673    0.7825    0.0000 C    0  0  0  0  0  0  0  0  0  0  0  0
    4.5851    1.3671    0.0000 C    0  0  0  0  0  0  0  0  0  0  0  0
    3.7699    1.2397    0.0000 C    0  0  0  0  0  0  0  0  0  0  0  0
    4.7158    2.1816    0.0000 C    0  0  0  0  0  0  0  0  0  0  0  0
    3.0772    0.7918    0.0000 C    0  0  0  0  0  0  0  0  0  0  0  0
    5.4517    2.5547    0.0000 C    0  0  0  0  0  0  0  0  0  0  0  0
    2.3429    1.1679    0.0000 C    0  0  0  0  0  0  0  0  0  0  0  0
    3.1186   -0.0322    0.0000 C    0  0  0  0  0  0  0  0  0  0  0  0
    1.6500    0.7199    0.0000 C    0  0  0  0  0  0  0  0  0  0  0  0
    2.4258   -0.4802    0.0000 C    0  0  0  0  0  0  0  0  0  0  0  0
    1.6915   -0.1040    0.0000 C    0  0  0  0  0  0  0  0  0  0  0  0
    7.2767    1.0585    0.0000 H    0  0  0  0  0  0  0  0  0  0  0  0
  1 26  1  0  0  0  0
  2 27  1  0  0  0  0
  3 12  1  0  0  0  0
  3 13  1  0  0  0  0
  4 16  2  0  0  0  0
  5 19  1  0  0  0  0
  6 19  2  0  0  0  0
  7 20  2  0  0  0  0
  8 11  1  0  0  0  0
  8 23  1  0  0  0  0
  9 12  1  0  0  0  0
  9 14  1  0  0  0  0
  9 16  1  0  0  0  0
 15 10  1  1  0  0  0
 10 20  1  0  0  0  0
 11 22  2  0  0  0  0
 12 15  1  0  0  0  0
 12 31  1  6  0  0  0
 13 14  1  0  0  0  0
 13 17  1  0  0  0  0
 13 18  1  0  0  0  0
 14 19  1  6  0  0  0
 15 16  1  0  0  0  0
 20 21  1  0  0  0  0
 21 22  1  0  0  0  0
 21 23  2  0  0  0  0
 22 24  1  0  0  0  0
 23 25  1  0  0  0  0
 24 26  2  0  0  0  0
 24 27  1  0  0  0  0
 26 28  1  0  0  0  0
 27 29  2  0  0  0  0
 28 30  2  0  0  0  0
 29 30  1  0  0  0  0
M  END
> <DRUGBANK_ID>
DB00485

> <DRUG_GROUPS>
approved

> <GENERIC_NAME>
Dicloxacillin

> <SYNONYMS>
Dicloxacilina; Dicloxacillin; Dicloxacillina; Dicloxacilline; Dicloxacillinum

> <SALTS>
Dicloxacillin Sodium

> <BRANDS>
Amcidil; Betaclox; Cloxagen; Dacocilin; Damacir; Dicillin; Diclex; Diclocil; Dicloplus; Dicloson; Dicloxal; Dicloxgen; Dicloxina; Dyclobiot; Dynapen; Posipen; Quimocyclar; Staklox; Terbocloxil; Ziefmycin

> <CHEMICAL_FORMULA>
C19H17Cl2N3O5S

> <MOLECULAR_WEIGHT>
470.326

> <EXACT_MASS>
469.026596773

> <IUPAC_NAME>
(2S,5R,6R)-6-[3-(2,6-dichlorophenyl)-5-methyl-1,2-oxazole-4-amido]-3,3-dimethyl-7-oxo-4-thia-1-azabicyclo[3.2.0]heptane-2-carboxylic acid

> <IUPAC_TRADITIONAL_NAME>
dicloxacillin

> <INCHI_IDENTIFIER>
InChI=1S/C19H17Cl2N3O5S/c1-7-10(12(23-29-7)11-8(20)5-4-6-9(11)21)15(25)22-13-16(26)24-14(18(27)28)19(2,3)30-17(13)24/h4-6,13-14,17H,1-3H3,(H,22,25)(H,27,28)/t13-,14+,17-/m1/s1

> <INCHI_KEY>
InChIKey=YFAGHNZHGGCZAX-JKIFEVAISA-N

> <SMILES>
[H][C@]12SC(C)(C)[C@@H](N1C(=O)[C@H]2NC(=O)C1=C(C)ON=C1C1=C(Cl)C=CC=C1Cl)C(O)=O

> <JCHEM_ACCEPTOR_COUNT>
5

> <JCHEM_DONOR_COUNT>
2

> <JCHEM_ACIDIC_PKA>
3.75

> <JCHEM_BASIC_PKA>
-0.71

> <JCHEM_PHYSIOLOGICAL_CHARGE>
-1

> <ALOGPS_LOGP>
3.19

> <JCHEM_LOGP>
2.91

> <ALOGPS_LOGS>
-4.2

> <JCHEM_POLARIZABILITY>
42.86

> <JCHEM_POLAR_SURFACE_AREA>
112.74

> <JCHEM_REFRACTIVITY>
111.44

> <JCHEM_ROTATABLE_BOND_COUNT>
3

> <ALOGPS_SOLUBILITY>
2.96e-02 g/l __ 

$$$$
