
  Mrv0541 05291309392D          

 22 24  0  0  1  0            999 V2000
    2.3645    0.6188    0.0000 Cl   0  0  0  0  0  0  0  0  0  0  0  0
    6.7176   -1.6952    0.0000 S    0  0  0  0  0  0  0  0  0  0  0  0
    4.5080   -0.6188    0.0000 N    0  0  0  0  0  0  0  0  0  0  0  0
    4.5080   -1.4438    0.0000 C    0  0  0  0  0  0  0  0  0  0  0  0
    5.2224   -0.2063    0.0000 C    0  0  0  0  0  0  0  0  0  0  0  0
    3.7935   -0.2063    0.0000 C    0  0  1  0  0  0  0  0  0  0  0  0
    5.2224   -1.8563    0.0000 C    0  0  0  0  0  0  0  0  0  0  0  0
    5.9370   -0.6188    0.0000 C    0  0  0  0  0  0  0  0  0  0  0  0
    5.9370   -1.4438    0.0000 C    0  0  0  0  0  0  0  0  0  0  0  0
    3.0791   -0.6188    0.0000 C    0  0  0  0  0  0  0  0  0  0  0  0
    6.7176   -0.3674    0.0000 C    0  0  0  0  0  0  0  0  0  0  0  0
    7.1991   -1.0313    0.0000 C    0  0  0  0  0  0  0  0  0  0  0  0
    2.3645   -0.2063    0.0000 C    0  0  0  0  0  0  0  0  0  0  0  0
    3.0791   -1.4438    0.0000 C    0  0  0  0  0  0  0  0  0  0  0  0
    1.6500   -0.6188    0.0000 C    0  0  0  0  0  0  0  0  0  0  0  0
    2.3645   -1.8563    0.0000 C    0  0  0  0  0  0  0  0  0  0  0  0
    1.6500   -1.4438    0.0000 C    0  0  0  0  0  0  0  0  0  0  0  0
    3.7935    0.6187    0.0000 C    0  0  0  0  0  0  0  0  0  0  0  0
    3.0790    1.0312    0.0000 O    0  0  0  0  0  0  0  0  0  0  0  0
    4.5080    1.0312    0.0000 O    0  0  0  0  0  0  0  0  0  0  0  0
    5.2224    1.4437    0.0000 C    0  0  0  0  0  0  0  0  0  0  0  0
    4.0070   -1.0032    0.0000 H    0  0  0  0  0  0  0  0  0  0  0  0
  1 13  1  0  0  0  0
  2  9  1  0  0  0  0
  2 12  1  0  0  0  0
  3  4  1  0  0  0  0
  3  5  1  0  0  0  0
  3  6  1  0  0  0  0
  4  7  1  0  0  0  0
  5  8  1  0  0  0  0
  6 10  1  0  0  0  0
  7  9  1  0  0  0  0
  8  9  2  0  0  0  0
  8 11  1  0  0  0  0
 10 13  1  0  0  0  0
 10 14  2  0  0  0  0
 11 12  2  0  0  0  0
 13 15  2  0  0  0  0
 14 16  1  0  0  0  0
 15 17  1  0  0  0  0
 16 17  2  0  0  0  0
  6 18  1  0  0  0  0
 18 19  2  0  0  0  0
 18 20  1  0  0  0  0
 20 21  1  0  0  0  0
  6 22  1  6  0  0  0
M  END
> <DRUGBANK_ID>
DB00758

> <DRUG_GROUPS>
approved; nutraceutical

> <GENERIC_NAME>
Clopidogrel

> <SALTS>
Clopidogrel Bisulfate 

> <BRANDS>
Plavix

> <CHEMICAL_FORMULA>
C16H16ClNO2S

> <MOLECULAR_WEIGHT>
321.822

> <EXACT_MASS>
321.059027158

> <IUPAC_NAME>
methyl (2S)-2-(2-chlorophenyl)-2-{4H,5H,6H,7H-thieno[3,2-c]pyridin-5-yl}acetate

> <IUPAC_TRADITIONAL_NAME>
clopidogrel

> <INCHI_IDENTIFIER>
InChI=1S/C16H16ClNO2S/c1-20-16(19)15(12-4-2-3-5-13(12)17)18-8-6-14-11(10-18)7-9-21-14/h2-5,7,9,15H,6,8,10H2,1H3/t15-/m0/s1

> <INCHI_KEY>
InChIKey=GKTWGGQPFAXNFI-HNNXBMFYSA-N

> <SMILES>
[H][C@@](N1CCC2=C(C1)C=CS2)(C(=O)OC)C1=CC=CC=C1Cl

> <JCHEM_ACCEPTOR_COUNT>
2

> <JCHEM_DONOR_COUNT>
0

> <JCHEM_BASIC_PKA>
5.14

> <JCHEM_PHYSIOLOGICAL_CHARGE>
0

> <ALOGPS_LOGP>
3.84

> <JCHEM_LOGP>
4.03

> <ALOGPS_LOGS>
-4.4

> <JCHEM_POLARIZABILITY>
33.19

> <JCHEM_POLAR_SURFACE_AREA>
29.54

> <JCHEM_REFRACTIVITY>
84.93

> <JCHEM_ROTATABLE_BOND_COUNT>
4

> <ALOGPS_SOLUBILITY>
1.18e-02 g/l __ 

$$$$
