538
  Mrv0541 02231214452D          

 36 34  0  0  1  0            999 V2000
    3.3009    2.4751    0.0000 Gd   0  1  0  0  0  0  0  0  0  0  0  0
    4.0154    2.0625    0.0000 O    0  5  0  0  0  0  0  0  0  0  0  0
    4.7299    3.3001    0.0000 O    0  0  0  0  0  0  0  0  0  0  0  0
    9.7313    1.2375    0.0000 O    0  0  0  0  0  0  0  0  0  0  0  0
    4.0154    3.7126    0.0000 O    0  0  0  0  0  0  0  0  0  0  0  0
    7.5879    0.0000    0.0000 O    0  5  0  0  0  0  0  0  0  0  0  0
    6.8734    6.1876    0.0000 O    0  5  0  0  0  0  0  0  0  0  0  0
    6.8734    1.2375    0.0000 O    0  0  0  0  0  0  0  0  0  0  0  0
    5.4444    6.1876    0.0000 O    0  0  0  0  0  0  0  0  0  0  0  0
   12.5893    2.0625    0.0000 O    0  0  0  0  0  0  0  0  0  0  0  0
    1.1575    4.5376    0.0000 O    0  0  0  0  0  0  0  0  0  0  0  0
    6.1588    2.4751    0.0000 N    0  0  0  0  0  0  0  0  0  0  0  0
    8.3023    2.0625    0.0000 N    0  0  0  0  0  0  0  0  0  0  0  0
    5.4444    4.5376    0.0000 N    0  0  0  0  0  0  0  0  0  0  0  0
   10.4458    2.4751    0.0000 N    0  0  0  0  0  0  0  0  0  0  0  0
    3.3009    4.9501    0.0000 N    0  0  0  0  0  0  0  0  0  0  0  0
    6.8734    2.0625    0.0000 C    0  0  0  0  0  0  0  0  0  0  0  0
    6.1588    3.3001    0.0000 C    0  0  0  0  0  0  0  0  0  0  0  0
    7.5879    2.4751    0.0000 C    0  0  0  0  0  0  0  0  0  0  0  0
    5.4444    3.7126    0.0000 C    0  0  0  0  0  0  0  0  0  0  0  0
    5.4444    2.0625    0.0000 C    0  0  0  0  0  0  0  0  0  0  0  0
    9.0168    2.4751    0.0000 C    0  0  0  0  0  0  0  0  0  0  0  0
    4.7299    4.9501    0.0000 C    0  0  0  0  0  0  0  0  0  0  0  0
    8.3023    1.2375    0.0000 C    0  0  0  0  0  0  0  0  0  0  0  0
    6.1588    4.9501    0.0000 C    0  0  0  0  0  0  0  0  0  0  0  0
    4.7299    2.4751    0.0000 C    0  0  0  0  0  0  0  0  0  0  0  0
    9.7313    2.0625    0.0000 C    0  0  0  0  0  0  0  0  0  0  0  0
    4.0154    4.5376    0.0000 C    0  0  0  0  0  0  0  0  0  0  0  0
    7.5879    0.8250    0.0000 C    0  0  0  0  0  0  0  0  0  0  0  0
    6.1588    5.7751    0.0000 C    0  0  0  0  0  0  0  0  0  0  0  0
   11.1603    2.0625    0.0000 C    0  0  0  0  0  0  0  0  0  0  0  0
    2.5864    4.5376    0.0000 C    0  0  0  0  0  0  0  0  0  0  0  0
   11.8747    2.4751    0.0000 C    0  0  0  0  0  0  0  0  0  0  0  0
    1.8720    4.9501    0.0000 C    0  0  0  0  0  0  0  0  0  0  0  0
   13.3037    2.4751    0.0000 C    0  0  0  0  0  0  0  0  0  0  0  0
    0.4430    4.9501    0.0000 C    0  0  0  0  0  0  0  0  0  0  0  0
  2 26  1  0  0  0  0
  3 26  2  0  0  0  0
  4 27  2  0  0  0  0
  5 28  2  0  0  0  0
  6 29  1  0  0  0  0
  7 30  1  0  0  0  0
  8 29  2  0  0  0  0
  9 30  2  0  0  0  0
 10 33  1  0  0  0  0
 10 35  1  0  0  0  0
 11 34  1  0  0  0  0
 11 36  1  0  0  0  0
 12 17  1  0  0  0  0
 12 18  1  0  0  0  0
 12 21  1  0  0  0  0
 13 19  1  0  0  0  0
 13 22  1  0  0  0  0
 13 24  1  0  0  0  0
 14 20  1  0  0  0  0
 14 23  1  0  0  0  0
 14 25  1  0  0  0  0
 15 27  1  0  0  0  0
 15 31  1  0  0  0  0
 16 28  1  0  0  0  0
 16 32  1  0  0  0  0
 17 19  1  0  0  0  0
 18 20  1  0  0  0  0
 21 26  1  0  0  0  0
 22 27  1  0  0  0  0
 23 28  1  0  0  0  0
 24 29  1  0  0  0  0
 25 30  1  0  0  0  0
 31 33  1  0  0  0  0
 32 34  1  0  0  0  0
M  END
> <DRUGBANK_ID>
DB00538

> <DRUG_GROUPS>
approved; investigational

> <GENERIC_NAME>
Gadoversetamide

> <SYNONYMS>
Gadoversetamid; Gadoversetamida; Gadoversetamide; Gadoversetamidum

> <BRANDS>
OptiMARK

> <CHEMICAL_FORMULA>
C20H34GdN5O10

> <MOLECULAR_WEIGHT>
661.76

> <EXACT_MASS>
662.154667866

> <IUPAC_NAME>
gadolinium(3+) ion 2-[bis({2-[(carboxylatomethyl)({[(2-methoxyethyl)carbamoyl]methyl})amino]ethyl})amino]acetate

> <IUPAC_TRADITIONAL_NAME>
gadolinium(3+) 2-[bis({2-[(carboxylatomethyl)({[(2-methoxyethyl)carbamoyl]methyl})amino]ethyl})amino]acetate

> <INCHI_IDENTIFIER>
InChI=1S/C20H37N5O10.Gd/c1-34-9-3-21-16(26)11-24(14-19(30)31)7-5-23(13-18(28)29)6-8-25(15-20(32)33)12-17(27)22-4-10-35-2;/h3-15H2,1-2H3,(H,21,26)(H,22,27)(H,28,29)(H,30,31)(H,32,33);/q;+3/p-3

> <INCHI_KEY>
InChIKey=HBEAOBRDTOXWRZ-UHFFFAOYSA-K

> <SMILES>
[Gd+3].COCCNC(=O)CN(CCN(CCN(CC([O-])=O)CC(=O)NCCOC)CC([O-])=O)CC([O-])=O

> <JCHEM_ACCEPTOR_COUNT>
13

> <JCHEM_DONOR_COUNT>
2

> <JCHEM_ACIDIC_PKA>
2.32

> <JCHEM_BASIC_PKA>
8.97

> <JCHEM_PHYSIOLOGICAL_CHARGE>
-2

> <ALOGPS_LOGP>
0.36

> <JCHEM_LOGP>
-7

> <ALOGPS_LOGS>
-2.4

> <JCHEM_POLARIZABILITY>
49.81

> <JCHEM_POLAR_SURFACE_AREA>
206.77

> <JCHEM_REFRACTIVITY>
154.49

> <JCHEM_ROTATABLE_BOND_COUNT>
22

> <ALOGPS_SOLUBILITY>
2.98e+00 g/l __ 

$$$$
