450
  Mrv0541 02231214412D          

 28 31  0  0  1  0            999 V2000
    7.7808    4.6060    0.0000 F   0  0  0  0  0  0  0  0  0  0  0  0
    5.1661   -3.4559    0.0000 O   0  0  0  0  0  0  0  0  0  0  0  0
    7.3066    0.8552    0.0000 O   0  0  0  0  0  0  0  0  0  0  0  0
    4.6285   -0.4394    0.0000 N   0  0  0  0  0  0  0  0  0  0  0  0
    3.8596   -2.7920    0.0000 N   0  0  0  0  0  0  0  0  0  0  0  0
    3.8596   -4.1198    0.0000 N   0  0  0  0  0  0  0  0  0  0  0  0
    5.1795   -1.0535    0.0000 C   0  0  0  0  0  0  0  0  0  0  0  0
    4.9232   -1.8376    0.0000 C   0  0  0  0  0  0  0  0  0  0  0  0
    3.8213   -0.6095    0.0000 C   0  0  0  0  0  0  0  0  0  0  0  0
    4.1159   -2.0077    0.0000 C   0  0  0  0  0  0  0  0  0  0  0  0
    4.8848    0.3448    0.0000 C   0  0  0  0  0  0  0  0  0  0  0  0
    3.5649   -1.3937    0.0000 C   0  0  0  0  0  0  0  0  0  0  0  0
    5.6921    0.5149    0.0000 C   0  0  0  0  0  0  0  0  0  0  0  0
    3.0790   -3.0434    0.0000 C   0  0  0  0  0  0  0  0  0  0  0  0
    5.9484    1.2991    0.0000 C   0  0  0  0  0  0  0  0  0  0  0  0
    4.3411   -3.4559    0.0000 C   0  0  0  0  0  0  0  0  0  0  0  0
    3.0790   -3.8684    0.0000 C   0  0  0  0  0  0  0  0  0  0  0  0
    2.3645   -2.6309    0.0000 C   0  0  0  0  0  0  0  0  0  0  0  0
    6.7557    1.4693    0.0000 C   0  0  0  0  0  0  0  0  0  0  0  0
    2.3645   -4.2809    0.0000 C   0  0  0  0  0  0  0  0  0  0  0  0
    1.6500   -3.0434    0.0000 C   0  0  0  0  0  0  0  0  0  0  0  0
    1.6500   -3.8684    0.0000 C   0  0  0  0  0  0  0  0  0  0  0  0
    7.0120    2.2534    0.0000 C   0  0  0  0  0  0  0  0  0  0  0  0
    6.4610    2.8675    0.0000 C   0  0  0  0  0  0  0  0  0  0  0  0
    7.8193    2.4235    0.0000 C   0  0  0  0  0  0  0  0  0  0  0  0
    6.7173    3.6517    0.0000 C   0  0  0  0  0  0  0  0  0  0  0  0
    8.0755    3.2077    0.0000 C   0  0  0  0  0  0  0  0  0  0  0  0
    7.5246    3.8218    0.0000 C   0  0  0  0  0  0  0  0  0  0  0  0
  1 28  1  0  0  0  0
  2 16  2  0  0  0  0
  3 19  2  0  0  0  0
  4  7  1  0  0  0  0
  4  9  1  0  0  0  0
  4 11  1  0  0  0  0
  5 10  1  0  0  0  0
  5 14  1  0  0  0  0
  5 16  1  0  0  0  0
  6 16  1  0  0  0  0
  6 17  1  0  0  0  0
  7  8  1  0  0  0  0
  8 10  1  0  0  0  0
  9 12  1  0  0  0  0
 10 12  2  0  0  0  0
 11 13  1  0  0  0  0
 13 15  1  0  0  0  0
 14 17  1  0  0  0  0
 14 18  2  0  0  0  0
 15 19  1  0  0  0  0
 17 20  2  0  0  0  0
 18 21  1  0  0  0  0
 19 23  1  0  0  0  0
 20 22  1  0  0  0  0
 21 22  2  0  0  0  0
 23 24  2  0  0  0  0
 23 25  1  0  0  0  0
 24 26  1  0  0  0  0
 25 27  2  0  0  0  0
 26 28  2  0  0  0  0
 27 28  1  0  0  0  0
M  END
> <DRUGBANK_ID>
DB00450

> <DRUG_GROUPS>
approved

> <GENERIC_NAME>
Droperidol

> <BRANDS>
Dridol; Droleptan; Inapsine; Xomolix

> <CHEMICAL_FORMULA>
C22H22FN3O2

> <MOLECULAR_WEIGHT>
379.4274

> <EXACT_MASS>
379.169605168

> <IUPAC_NAME>
1-{1-[4-(4-fluorophenyl)-4-oxobutyl]-1,2,3,6-tetrahydropyridin-4-yl}-2,3-dihydro-1H-1,3-benzodiazol-2-one

> <IUPAC_TRADITIONAL_NAME>
droperidol

> <INCHI_IDENTIFIER>
InChI=1S/C22H22FN3O2/c23-17-9-7-16(8-10-17)21(27)6-3-13-25-14-11-18(12-15-25)26-20-5-2-1-4-19(20)24-22(26)28/h1-2,4-5,7-11H,3,6,12-15H2,(H,24,28)

> <INCHI_KEY>
InChIKey=RMEDXOLNCUSCGS-UHFFFAOYSA-N

> <SMILES>
FC1=CC=C(C=C1)C(=O)CCCN1CCC(=CC1)N1C(=O)NC2=CC=CC=C12

> <JCHEM_ACCEPTOR_COUNT>
3

> <JCHEM_DONOR_COUNT>
1

> <JCHEM_ACIDIC_PKA>
12.72

> <JCHEM_BASIC_PKA>
6.75

> <JCHEM_PHYSIOLOGICAL_CHARGE>
0

> <ALOGPS_LOGP>
3.93

> <JCHEM_LOGP>
3.01

> <ALOGPS_LOGS>
-3.6

> <JCHEM_POLARIZABILITY>
40.31

> <JCHEM_POLAR_SURFACE_AREA>
52.65

> <JCHEM_REFRACTIVITY>
109.52

> <JCHEM_ROTATABLE_BOND_COUNT>
6

> <ALOGPS_SOLUBILITY>
9.66e-02 g/l __ 

$$$$
