187
  Mrv0541 02231214302D          

 21 21  0  0  1  0            999 V2000
    3.0790    1.0313    0.0000 O   0  0  0  0  0  0  0  0  0  0  0  0
    3.0790    2.6812    0.0000 O   0  0  0  0  0  0  0  0  0  0  0  0
    1.6500   -3.9188    0.0000 O   0  0  0  0  0  0  0  0  0  0  0  0
    3.0790   -3.9188    0.0000 O   0  0  0  0  0  0  0  0  0  0  0  0
    4.5079    3.5062    0.0000 N   0  0  0  0  0  0  0  0  0  0  0  0
    3.7934    2.2688    0.0000 C   0  0  0  0  0  0  0  0  0  0  0  0
    4.5079    2.6812    0.0000 C   0  0  0  0  0  0  0  0  0  0  0  0
    5.2223    3.9188    0.0000 C   0  0  0  0  0  0  0  0  0  0  0  0
    3.7934    1.4438    0.0000 C   0  0  0  0  0  0  0  0  0  0  0  0
    5.2223    4.7438    0.0000 C   0  0  0  0  0  0  0  0  0  0  0  0
    5.9369    3.5062    0.0000 C   0  0  0  0  0  0  0  0  0  0  0  0
    3.0790   -1.4438    0.0000 C   0  0  0  0  0  0  0  0  0  0  0  0
    3.0790   -2.2688    0.0000 C   0  0  0  0  0  0  0  0  0  0  0  0
    3.0790    0.2063    0.0000 C   0  0  0  0  0  0  0  0  0  0  0  0
    2.3644   -1.0313    0.0000 C   0  0  0  0  0  0  0  0  0  0  0  0
    3.7934   -1.0313    0.0000 C   0  0  0  0  0  0  0  0  0  0  0  0
    2.3644   -0.2063    0.0000 C   0  0  0  0  0  0  0  0  0  0  0  0
    3.7934   -0.2063    0.0000 C   0  0  0  0  0  0  0  0  0  0  0  0
    2.3644   -2.6812    0.0000 C   0  0  0  0  0  0  0  0  0  0  0  0
    2.3644   -3.5062    0.0000 C   0  0  0  0  0  0  0  0  0  0  0  0
    1.6500   -4.7438    0.0000 C   0  0  0  0  0  0  0  0  0  0  0  0
  1  9  1  0  0  0  0
  1 14  1  0  0  0  0
  2  6  1  0  0  0  0
  3 20  1  0  0  0  0
  3 21  1  0  0  0  0
  4 20  2  0  0  0  0
  5  7  1  0  0  0  0
  5  8  1  0  0  0  0
  6  7  1  0  0  0  0
  6  9  1  0  0  0  0
  8 10  1  0  0  0  0
  8 11  1  0  0  0  0
 12 13  1  0  0  0  0
 12 15  2  0  0  0  0
 12 16  1  0  0  0  0
 13 19  1  0  0  0  0
 14 17  2  0  0  0  0
 14 18  1  0  0  0  0
 15 17  1  0  0  0  0
 16 18  2  0  0  0  0
 19 20  1  0  0  0  0
M  END
> <DRUGBANK_ID>
DB00187

> <DRUG_GROUPS>
approved

> <GENERIC_NAME>
Esmolol

> <SALTS>
Esmolol Hydrochloride

> <BRANDS>
Brevibloc

> <CHEMICAL_FORMULA>
C16H25NO4

> <MOLECULAR_WEIGHT>
295.374

> <EXACT_MASS>
295.178358293

> <IUPAC_NAME>
methyl 3-(4-{2-hydroxy-3-[(propan-2-yl)amino]propoxy}phenyl)propanoate

> <IUPAC_TRADITIONAL_NAME>
(+-)-esmolol

> <INCHI_IDENTIFIER>
InChI=1S/C16H25NO4/c1-12(2)17-10-14(18)11-21-15-7-4-13(5-8-15)6-9-16(19)20-3/h4-5,7-8,12,14,17-18H,6,9-11H2,1-3H3

> <INCHI_KEY>
InChIKey=AQNDDEOPVVGCPG-UHFFFAOYSA-N

> <SMILES>
COC(=O)CCC1=CC=C(OCC(O)CNC(C)C)C=C1

> <JCHEM_ACCEPTOR_COUNT>
4

> <JCHEM_DONOR_COUNT>
2

> <JCHEM_ACIDIC_PKA>
14.09

> <JCHEM_BASIC_PKA>
9.67

> <JCHEM_PHYSIOLOGICAL_CHARGE>
1

> <ALOGPS_LOGP>
2.02

> <JCHEM_LOGP>
1.82

> <ALOGPS_LOGS>
-3.3

> <JCHEM_POLARIZABILITY>
33.68

> <JCHEM_POLAR_SURFACE_AREA>
67.79

> <JCHEM_REFRACTIVITY>
81.05

> <JCHEM_ROTATABLE_BOND_COUNT>
10

> <ALOGPS_SOLUBILITY>
1.44e-01 g/l __ 

$$$$
