
  Mrv0541 11291314372D          

 25 27  0  0  0  0            999 V2000
    7.2598    0.4956    0.0000 S   0  0  0  0  0  0  0  0  0  0  0  0
    3.6012    0.0785    0.0000 O   0  0  0  0  0  0  0  0  0  0  0  0
    8.0988    2.4586    0.0000 O   0  0  0  0  0  0  0  0  0  0  0  0
    8.4024   -0.4296    0.0000 O   0  0  0  0  0  0  0  0  0  0  0  0
    1.4577    0.4910    0.0000 N   0  0  0  0  0  0  0  0  0  0  0  0
    8.4793    1.0385    0.0000 N   0  0  0  0  0  0  0  0  0  0  0  0
    0.0287    0.4910    0.0000 N   0  0  0  0  0  0  0  0  0  0  0  0
    7.1736    1.3160    0.0000 C   0  0  0  0  0  0  0  0  0  0  0  0
    6.4591    1.7285    0.0000 C   0  0  0  0  0  0  0  0  0  0  0  0
    5.7447    1.3160    0.0000 C   0  0  0  0  0  0  0  0  0  0  0  0
    7.9273    1.6516    0.0000 C   0  0  0  0  0  0  0  0  0  0  0  0
    2.1722    0.0785    0.0000 C   0  0  0  0  0  0  0  0  0  0  0  0
    5.7447    0.4910    0.0000 C   0  0  0  0  0  0  0  0  0  0  0  0
    5.0302    1.7286    0.0000 C   0  0  0  0  0  0  0  0  0  0  0  0
    2.8867    0.4910    0.0000 C   0  0  0  0  0  0  0  0  0  0  0  0
    4.3156    0.4910    0.0000 C   0  0  0  0  0  0  0  0  0  0  0  0
    5.0301    0.0785    0.0000 C   0  0  0  0  0  0  0  0  0  0  0  0
    4.3156    1.3160    0.0000 C   0  0  0  0  0  0  0  0  0  0  0  0
    8.0668    0.3240    0.0000 C   0  0  0  0  0  0  0  0  0  0  0  0
    0.7433    0.0785    0.0000 C   0  0  0  0  0  0  0  0  0  0  0  0
    1.4577    1.3161    0.0000 C   0  0  0  0  0  0  0  0  0  0  0  0
    0.7432   -0.7464    0.0000 C   0  0  0  0  0  0  0  0  0  0  0  0
    0.0287   -1.1589    0.0000 C   0  0  0  0  0  0  0  0  0  0  0  0
   -0.6857    0.0785    0.0000 C   0  0  0  0  0  0  0  0  0  0  0  0
   -0.6857   -0.7464    0.0000 C   0  0  0  0  0  0  0  0  0  0  0  0
  1  8  1  0  0  0  0
  1 19  1  0  0  0  0
  2 15  1  0  0  0  0
  2 16  1  0  0  0  0
  3 11  2  0  0  0  0
  4 19  2  0  0  0  0
  5 12  1  0  0  0  0
  5 20  1  0  0  0  0
  5 21  1  0  0  0  0
  6 11  1  0  0  0  0
  6 19  1  0  0  0  0
  7 20  1  0  0  0  0
  7 24  2  0  0  0  0
  8  9  1  0  0  0  0
  8 11  1  0  0  0  0
  9 10  1  0  0  0  0
 10 13  2  0  0  0  0
 10 14  1  0  0  0  0
 12 15  1  0  0  0  0
 13 17  1  0  0  0  0
 14 18  2  0  0  0  0
 16 17  2  0  0  0  0
 16 18  1  0  0  0  0
 20 22  2  0  0  0  0
 22 23  1  0  0  0  0
 23 25  2  0  0  0  0
 24 25  1  0  0  0  0
M  END
> <DRUGBANK_ID>
DB00412

> <DRUG_GROUPS>
approved; investigational

> <GENERIC_NAME>
Rosiglitazone

> <SALTS>
Rosiglitazone Maleate

> <BRANDS>


> <CHEMICAL_FORMULA>
C18H19N3O3S

> <MOLECULAR_WEIGHT>
357.427

> <EXACT_MASS>
357.114712179

> <IUPAC_NAME>
5-[(4-{2-[methyl(pyridin-2-yl)amino]ethoxy}phenyl)methyl]-1,3-thiazolidine-2,4-dione

> <IUPAC_TRADITIONAL_NAME>
rosiglitazone

> <INCHI_IDENTIFIER>
InChI=1/C18H19N3O3S/c1-21(16-4-2-3-9-19-16)10-11-24-14-7-5-13(6-8-14)12-15-17(22)20-18(23)25-15/h2-9,15H,10-12H2,1H3,(H,20,22,23)

> <INCHI_KEY>
InChIKey=YASAKCUCGLMORW-UHFFFAOYNA-N

> <SMILES>
CN(CCOC1=CC=C(CC2SC(=O)NC2=O)C=C1)C1=CC=CC=N1

> <JCHEM_ACCEPTOR_COUNT>
5

> <JCHEM_DONOR_COUNT>
1

> <JCHEM_ACIDIC_PKA>
6.84

> <JCHEM_BASIC_PKA>
6.23

> <JCHEM_PHYSIOLOGICAL_CHARGE>
-1

> <ALOGPS_LOGP>
2.95

> <JCHEM_LOGP>
2.45

> <ALOGPS_LOGS>
-4

> <JCHEM_POLARIZABILITY>
37.8

> <JCHEM_POLAR_SURFACE_AREA>
71.53

> <JCHEM_REFRACTIVITY>
97.79

> <JCHEM_ROTATABLE_BOND_COUNT>
7

> <ALOGPS_SOLUBILITY>
3.80e-02 g/l __ 

$$$$
