147
  Mrv0541 02231214282D          

 12 12  0  0  0  0            999 V2000
    2.0930    0.2063    0.0000 O   0  0  0  0  0  0  0  0  0  0  0  0
    5.6655   -0.2063    0.0000 O   0  0  0  0  0  0  0  0  0  0  0  0
    2.8075    1.4438    0.0000 O   0  0  0  0  0  0  0  0  0  0  0  0
    3.5220   -1.4438    0.0000 N   0  0  0  0  0  0  0  0  0  0  0  0
    4.2365   -0.2063    0.0000 C   0  0  0  0  0  0  0  0  0  0  0  0
    3.5220    0.2063    0.0000 C   0  0  0  0  0  0  0  0  0  0  0  0
    2.8075   -0.2063    0.0000 C   0  0  0  0  0  0  0  0  0  0  0  0
    2.8075   -1.0313    0.0000 C   0  0  0  0  0  0  0  0  0  0  0  0
    4.9509    0.2063    0.0000 C   0  0  0  0  0  0  0  0  0  0  0  0
    4.2365   -1.0313    0.0000 C   0  0  0  0  0  0  0  0  0  0  0  0
    2.0930   -1.4438    0.0000 C   0  0  0  0  0  0  0  0  0  0  0  0
    3.5220    1.0313    0.0000 C   0  0  0  0  0  0  0  0  0  0  0  0
  1  7  1  0  0  0  0
  2  9  1  0  0  0  0
  3 12  2  0  0  0  0
  4  8  2  0  0  0  0
  4 10  1  0  0  0  0
  5  6  1  0  0  0  0
  5  9  1  0  0  0  0
  5 10  2  0  0  0  0
  6  7  2  0  0  0  0
  6 12  1  0  0  0  0
  7  8  1  0  0  0  0
  8 11  1  0  0  0  0
M  END
> <DRUGBANK_ID>
DB00147

> <DRUG_GROUPS>
approved; nutraceutical

> <GENERIC_NAME>
Pyridoxal

> <SYNONYMS>
Pyridoxaldehyde

> <CHEMICAL_FORMULA>
C8H9NO3

> <MOLECULAR_WEIGHT>
167.162

> <EXACT_MASS>
167.058243159

> <IUPAC_NAME>
3-hydroxy-5-(hydroxymethyl)-2-methylpyridine-4-carbaldehyde

> <IUPAC_TRADITIONAL_NAME>
pyridoxal

> <INCHI_IDENTIFIER>
InChI=1S/C8H9NO3/c1-5-8(12)7(4-11)6(3-10)2-9-5/h2,4,10,12H,3H2,1H3

> <INCHI_KEY>
InChIKey=RADKZDMFGJYCBB-UHFFFAOYSA-N

> <SMILES>
CC1=NC=C(CO)C(C=O)=C1O

> <JCHEM_ACCEPTOR_COUNT>
4

> <JCHEM_DONOR_COUNT>
2

> <JCHEM_ACIDIC_PKA>
7.97

> <JCHEM_BASIC_PKA>
4.11

> <JCHEM_PHYSIOLOGICAL_CHARGE>
0

> <ALOGPS_LOGP>
0.02

> <JCHEM_LOGP>
0.18

> <ALOGPS_LOGS>
-1.2

> <JCHEM_POLARIZABILITY>
16.28

> <JCHEM_POLAR_SURFACE_AREA>
70.42

> <JCHEM_REFRACTIVITY>
43.87

> <JCHEM_ROTATABLE_BOND_COUNT>
2

> <ALOGPS_SOLUBILITY>
1.17e+01 g/l __ 

$$$$
