 
  Mrv0541 02231214522D          
 
 21 23  0  0  1  0            999 V2000
   17.5264  -10.4991    0.0000 C   0  0  2  0  0  0  0  0  0  0  0  0
   17.5264   -9.7044    0.0000 C   0  0  0  0  0  0  0  0  0  0  0  0
   18.2793  -10.9174    0.0000 C   0  0  2  0  0  0  0  0  0  0  0  0
   16.8572  -10.8756    0.0000 C   0  0  0  0  0  0  0  0  0  0  0  0
   18.2793  -10.1227    0.0000 C   0  0  0  0  0  0  0  0  0  0  0  0
   16.8572   -9.3279    0.0000 C   0  0  0  0  0  0  0  0  0  0  0  0
   18.2793   -9.3279    0.0000 C   0  0  0  0  0  0  0  0  0  0  0  0
   18.9486  -10.4991    0.0000 C   0  0  1  0  0  0  0  0  0  0  0  0
   19.6179  -10.1227    0.0000 C   0  0  0  0  0  0  0  0  0  0  0  0
   16.8572   -8.5331    0.0000 C   0  0  0  0  0  0  0  0  0  0  0  0
   18.9486   -9.7462    0.0000 C   0  0  0  0  0  0  0  0  0  0  0  0
   18.2793   -8.5331    0.0000 C   0  0  0  0  0  0  0  0  0  0  0  0
   19.6179  -10.9174    0.0000 N   0  0  0  0  0  0  0  0  0  0  0  0
   17.5682   -8.1149    0.0000 C   0  0  0  0  0  0  0  0  0  0  0  0
   16.1879   -8.1149    0.0000 O   0  0  0  0  0  0  0  0  0  0  0  0
   20.4545  -10.9174    0.0000 C   0  0  0  0  0  0  0  0  0  0  0  0
   20.9146  -11.6703    0.0000 C   0  0  0  0  0  0  0  0  0  0  0  0
   18.2793  -11.7958    0.0000 C   0  0  0  0  0  0  0  0  0  0  0  0
   21.7512  -11.6703    0.0000 C   0  0  0  0  0  0  0  0  0  0  0  0
   22.1695  -12.4233    0.0000 C   0  0  0  0  0  0  0  0  0  0  0  0
   22.1695  -10.9174    0.0000 C   0  0  0  0  0  0  0  0  0  0  0  0
  1  2  1  0  0  0  0
  1  3  1  0  0  0  0
  1  4  1  0  0  0  0
  1  5  1  1  0  0  0
  2  6  2  0  0  0  0
  2  7  1  0  0  0  0
  3  8  1  0  0  0  0
  5  9  1  0  0  0  0
  6 10  1  0  0  0  0
  7 11  1  0  0  0  0
  7 12  2  0  0  0  0
  8 13  1  1  0  0  0
 10 14  2  0  0  0  0
 10 15  1  0  0  0  0
  8 11  1  0  0  0  0
  9 13  1  0  0  0  0
 12 14  1  0  0  0  0
 13 16  1  0  0  0  0
 16 17  1  0  0  0  0
  3 18  1  6  0  0  0
 17 19  2  0  0  0  0
 19 20  1  0  0  0  0
 19 21  1  0  0  0  0
M  END
> <DRUGBANK_ID>
DB00652

> <DRUG_GROUPS>
approved

> <GENERIC_NAME>
Pentazocine

> <SYNONYMS>
Pentazocin; Pentazocina; Pentazocine; Pentazocinum

> <SALTS>
Pentazocine Hydrochloride; Pentazocine Lactate

> <BRANDS>
Fortal; Fortral; Fortwin; Pangon; Pentagin; Sosegon; Stopain; Talwin; Talwin PX

> <CHEMICAL_FORMULA>
C19H27NO

> <MOLECULAR_WEIGHT>
285.4238

> <EXACT_MASS>
285.209264491

> <IUPAC_NAME>
(1R,9R,13R)-1,13-dimethyl-10-(3-methylbut-2-en-1-yl)-10-azatricyclo[7.3.1.0^{2,7}]trideca-2,4,6-trien-4-ol

> <IUPAC_TRADITIONAL_NAME>
pentazocine

> <INCHI_IDENTIFIER>
InChI=1S/C19H27NO/c1-13(2)7-9-20-10-8-19(4)14(3)18(20)11-15-5-6-16(21)12-17(15)19/h5-7,12,14,18,21H,8-11H2,1-4H3/t14-,18+,19+/m0/s1

> <INCHI_KEY>
InChIKey=VOKSWYLNZZRQPF-GDIGMMSISA-N

> <SMILES>
C[C@H]1[C@H]2CC3=CC=C(O)C=C3[C@]1(C)CCN2CC=C(C)C

> <JCHEM_ACCEPTOR_COUNT>
2

> <JCHEM_DONOR_COUNT>
1

> <JCHEM_ACIDIC_PKA>
7.59

> <JCHEM_BASIC_PKA>
12.4

> <JCHEM_PHYSIOLOGICAL_CHARGE>
1

> <ALOGPS_LOGP>
4.44

> <JCHEM_LOGP>
3.89

> <ALOGPS_LOGS>
-3.4

> <JCHEM_POLARIZABILITY>
33.86

> <JCHEM_POLAR_SURFACE_AREA>
23.47

> <JCHEM_REFRACTIVITY>
89.8

> <JCHEM_ROTATABLE_BOND_COUNT>
2

> <ALOGPS_SOLUBILITY>
1.22e-01 g/l __ 

$$$$
