871
  Mrv0541 02231215042D          

 16 16  0  0  1  0            999 V2000
    2.3645    0.7235    0.0000 O   0  0  0  0  0  0  0  0  0  0  0  0
    1.6500   -2.1640    0.0000 O   0  0  0  0  0  0  0  0  0  0  0  0
    4.5080   -2.1640    0.0000 O   0  0  0  0  0  0  0  0  0  0  0  0
    3.7935    1.5486    0.0000 N   0  0  0  0  0  0  0  0  0  0  0  0
    4.5080    1.9611    0.0000 C   0  0  0  0  0  0  0  0  0  0  0  0
    3.7935    0.7235    0.0000 C   0  0  0  0  0  0  0  0  0  0  0  0
    3.0791    0.3110    0.0000 C   0  0  0  0  0  0  0  0  0  0  0  0
    5.2224    2.3736    0.0000 C   0  0  0  0  0  0  0  0  0  0  0  0
    4.0955    2.6755    0.0000 C   0  0  0  0  0  0  0  0  0  0  0  0
    4.9205    1.2466    0.0000 C   0  0  0  0  0  0  0  0  0  0  0  0
    3.0791   -0.5140    0.0000 C   0  0  0  0  0  0  0  0  0  0  0  0
    3.7935   -0.9265    0.0000 C   0  0  0  0  0  0  0  0  0  0  0  0
    2.3645   -0.9265    0.0000 C   0  0  0  0  0  0  0  0  0  0  0  0
    2.3645   -1.7515    0.0000 C   0  0  0  0  0  0  0  0  0  0  0  0
    3.7935   -1.7515    0.0000 C   0  0  0  0  0  0  0  0  0  0  0  0
    3.0791   -2.1640    0.0000 C   0  0  0  0  0  0  0  0  0  0  0  0
  1  7  1  0  0  0  0
  2 14  1  0  0  0  0
  3 15  1  0  0  0  0
  4  5  1  0  0  0  0
  4  6  1  0  0  0  0
  5  8  1  0  0  0  0
  5  9  1  0  0  0  0
  5 10  1  0  0  0  0
  6  7  1  0  0  0  0
  7 11  1  0  0  0  0
 11 12  2  0  0  0  0
 11 13  1  0  0  0  0
 12 15  1  0  0  0  0
 13 14  2  0  0  0  0
 14 16  1  0  0  0  0
 15 16  2  0  0  0  0
M  END
> <DRUGBANK_ID>
DB00871

> <DRUG_GROUPS>
approved

> <GENERIC_NAME>
Terbutaline

> <SYNONYMS>
Terbutalin; Terbutalina; Terbutaline (sulfate de); Terbutalini sulfas; Terbutalinsulfat; Terbutalinum

> <SALTS>
Terbutaline Sulfate

> <BRANDS>
Brethaire; Brethine; Bricanyl; Bricardyl; Bricasma; Bricasol; Dracanyl; Terbasmin

> <CHEMICAL_FORMULA>
C12H19NO3

> <MOLECULAR_WEIGHT>
225.2842

> <EXACT_MASS>
225.136493479

> <IUPAC_NAME>
5-[2-(tert-butylamino)-1-hydroxyethyl]benzene-1,3-diol

> <IUPAC_TRADITIONAL_NAME>
terbutaline

> <INCHI_IDENTIFIER>
InChI=1S/C12H19NO3/c1-12(2,3)13-7-11(16)8-4-9(14)6-10(15)5-8/h4-6,11,13-16H,7H2,1-3H3

> <INCHI_KEY>
InChIKey=XWTYSIMOBUGWOL-UHFFFAOYSA-N

> <SMILES>
CC(C)(C)NCC(O)C1=CC(O)=CC(O)=C1

> <JCHEM_ACCEPTOR_COUNT>
4

> <JCHEM_DONOR_COUNT>
4

> <JCHEM_ACIDIC_PKA>
8.86

> <JCHEM_BASIC_PKA>
9.76

> <JCHEM_PHYSIOLOGICAL_CHARGE>
1

> <ALOGPS_LOGP>
0.55

> <JCHEM_LOGP>
0.44

> <ALOGPS_LOGS>
-1.6

> <JCHEM_POLARIZABILITY>
24.78

> <JCHEM_POLAR_SURFACE_AREA>
72.72

> <JCHEM_REFRACTIVITY>
63.04

> <JCHEM_ROTATABLE_BOND_COUNT>
4

> <ALOGPS_SOLUBILITY>
5.84e+00 g/l __ 

$$$$
