677
  Mrv0541 02231214552D          

 11 10  0  0  0  0            999 V2000
    3.7935    0.0000    0.0000 P   0  0  0  0  0  0  0  0  0  0  0  0
    3.3810    0.7145    0.0000 F   0  0  0  0  0  0  0  0  0  0  0  0
    4.5080    0.4125    0.0000 O   0  0  0  0  0  0  0  0  0  0  0  0
    3.0791   -0.4125    0.0000 O   0  0  0  0  0  0  0  0  0  0  0  0
    4.2060   -0.7145    0.0000 O   0  0  0  0  0  0  0  0  0  0  0  0
    5.2224    0.0000    0.0000 C   0  0  0  0  0  0  0  0  0  0  0  0
    2.3645    0.0000    0.0000 C   0  0  0  0  0  0  0  0  0  0  0  0
    5.9370    0.4125    0.0000 C   0  0  0  0  0  0  0  0  0  0  0  0
    5.2224   -0.8250    0.0000 C   0  0  0  0  0  0  0  0  0  0  0  0
    1.6500   -0.4125    0.0000 C   0  0  0  0  0  0  0  0  0  0  0  0
    2.3645    0.8250    0.0000 C   0  0  0  0  0  0  0  0  0  0  0  0
  1  2  1  0  0  0  0
  1  3  1  0  0  0  0
  1  4  1  0  0  0  0
  1  5  2  0  0  0  0
  3  6  1  0  0  0  0
  4  7  1  0  0  0  0
  6  8  1  0  0  0  0
  6  9  1  0  0  0  0
  7 10  1  0  0  0  0
  7 11  1  0  0  0  0
M  END
> <DRUGBANK_ID>
DB00677

> <DRUG_GROUPS>
approved; experimental

> <GENERIC_NAME>
Isoflurophate

> <SYNONYMS>
DFP; Diisopropoxyphosphoryl Fluoride; Diisopropyl Fluorophosphonate; Diisopropyl Phosphofluoridate; Diisopropyl Phosphorofluoridate; Diisopropylfluorophosphate; Diisopropylphosphofluoridate; Fluorodiisopropyl Phosphate; Fluorostigmine; Isoflurophosphate; Isopropyl Phosphorofluoridate

> <BRANDS>
Dyflos; Floropryl; Fluostigmine

> <CHEMICAL_FORMULA>
C6H14FO3P

> <MOLECULAR_WEIGHT>
184.1457

> <EXACT_MASS>
184.066459031

> <IUPAC_NAME>
bis(propan-2-yl) fluorophosphonate

> <IUPAC_TRADITIONAL_NAME>
isoflurophate

> <INCHI_IDENTIFIER>
InChI=1S/C6H14FO3P/c1-5(2)9-11(7,8)10-6(3)4/h5-6H,1-4H3

> <INCHI_KEY>
InChIKey=MUCZHBLJLSDCSD-UHFFFAOYSA-N

> <SMILES>
CC(C)OP(F)(=O)OC(C)C

> <JCHEM_ACCEPTOR_COUNT>
1

> <JCHEM_DONOR_COUNT>
0

> <JCHEM_BASIC_PKA>
-9.6

> <JCHEM_PHYSIOLOGICAL_CHARGE>
0

> <ALOGPS_LOGP>
1.1

> <JCHEM_LOGP>
1.76

> <ALOGPS_LOGS>
-1.4

> <JCHEM_POLARIZABILITY>
16.75

> <JCHEM_POLAR_SURFACE_AREA>
35.53

> <JCHEM_REFRACTIVITY>
40.89

> <JCHEM_ROTATABLE_BOND_COUNT>
4

> <ALOGPS_SOLUBILITY>
6.78e+00 g/l __ 

$$$$
