903
  Mrv0541 02231215052D          

 19 19  0  0  0  0            999 V2000
    1.6500    1.0808    0.0000 Cl   0  0  0  0  0  0  0  0  0  0  0  0
    1.6500   -0.5693    0.0000 Cl   0  0  0  0  0  0  0  0  0  0  0  0
    3.0791   -1.3943    0.0000 O    0  0  0  0  0  0  0  0  0  0  0  0
    2.3645    2.3183    0.0000 O    0  0  0  0  0  0  0  0  0  0  0  0
    4.5080   -3.0443    0.0000 O    0  0  0  0  0  0  0  0  0  0  0  0
    3.0791   -3.0443    0.0000 O    0  0  0  0  0  0  0  0  0  0  0  0
    3.0791    1.0808    0.0000 C    0  0  0  0  0  0  0  0  0  0  0  0
    3.7935    2.3183    0.0000 C    0  0  0  0  0  0  0  0  0  0  0  0
    3.0791    1.9058    0.0000 C    0  0  0  0  0  0  0  0  0  0  0  0
    3.7935    3.1433    0.0000 C    0  0  0  0  0  0  0  0  0  0  0  0
    2.3645    0.6683    0.0000 C    0  0  0  0  0  0  0  0  0  0  0  0
    3.7935    0.6683    0.0000 C    0  0  0  0  0  0  0  0  0  0  0  0
    3.0791   -0.5693    0.0000 C    0  0  0  0  0  0  0  0  0  0  0  0
    2.3645   -0.1568    0.0000 C    0  0  0  0  0  0  0  0  0  0  0  0
    3.7935   -0.1568    0.0000 C    0  0  0  0  0  0  0  0  0  0  0  0
    4.5080    3.5558    0.0000 C    0  0  0  0  0  0  0  0  0  0  0  0
    4.5080    1.9058    0.0000 C    0  0  0  0  0  0  0  0  0  0  0  0
    3.7935   -1.8068    0.0000 C    0  0  0  0  0  0  0  0  0  0  0  0
    3.7935   -2.6318    0.0000 C    0  0  0  0  0  0  0  0  0  0  0  0
  1 11  1  0  0  0  0
  2 14  1  0  0  0  0
  3 13  1  0  0  0  0
  3 18  1  0  0  0  0
  4  9  2  0  0  0  0
  5 19  1  0  0  0  0
  6 19  2  0  0  0  0
  7  9  1  0  0  0  0
  7 11  2  0  0  0  0
  7 12  1  0  0  0  0
  8  9  1  0  0  0  0
  8 10  1  0  0  0  0
  8 17  2  0  0  0  0
 10 16  1  0  0  0  0
 11 14  1  0  0  0  0
 12 15  2  0  0  0  0
 13 14  2  0  0  0  0
 13 15  1  0  0  0  0
 18 19  1  0  0  0  0
M  END
> <DRUGBANK_ID>
DB00903

> <DRUG_GROUPS>
approved

> <GENERIC_NAME>
Ethacrynic acid

> <SYNONYMS>
Etacrinic acid; Etacrynic acid; Ethacrynate; Methylenebutyrylphenoxyacetic acid

> <BRANDS>
Crinuryl; Edecril; Edecrina; Endecril; Hidromedin; Hydromedin; Mingit; Otacril; Reomax; Taladren; Uregit

> <CHEMICAL_FORMULA>
C13H12Cl2O4

> <MOLECULAR_WEIGHT>
303.138

> <EXACT_MASS>
302.011264286

> <IUPAC_NAME>
2-[2,3-dichloro-4-(2-methylidenebutanoyl)phenoxy]acetic acid

> <IUPAC_TRADITIONAL_NAME>
ethacrynic acid

> <INCHI_IDENTIFIER>
InChI=1S/C13H12Cl2O4/c1-3-7(2)13(18)8-4-5-9(12(15)11(8)14)19-6-10(16)17/h4-5H,2-3,6H2,1H3,(H,16,17)

> <INCHI_KEY>
InChIKey=AVOLMBLBETYQHX-UHFFFAOYSA-N

> <SMILES>
CCC(=C)C(=O)C1=C(Cl)C(Cl)=C(OCC(O)=O)C=C1

> <JCHEM_ACCEPTOR_COUNT>
4

> <JCHEM_DONOR_COUNT>
1

> <JCHEM_ACIDIC_PKA>
2.8

> <JCHEM_BASIC_PKA>
-5

> <JCHEM_PHYSIOLOGICAL_CHARGE>
-1

> <ALOGPS_LOGP>
3.42

> <JCHEM_LOGP>
3.66

> <ALOGPS_LOGS>
-4.2

> <JCHEM_POLARIZABILITY>
28.57

> <JCHEM_POLAR_SURFACE_AREA>
63.6

> <JCHEM_REFRACTIVITY>
72.22

> <JCHEM_ROTATABLE_BOND_COUNT>
6

> <ALOGPS_SOLUBILITY>
1.94e-02 g/l __ 

$$$$
