920
  Mrv0541 02231215062D          

 22 25  0  0  0  0            999 V2000
    1.9717    1.6084    0.0000 S   0  0  0  0  0  0  0  0  0  0  0  0
    2.9451    2.9253    0.0000 O   0  0  0  0  0  0  0  0  0  0  0  0
    3.7156   -2.1003    0.0000 N   0  0  0  0  0  0  0  0  0  0  0  0
    3.7156   -0.4503    0.0000 C   0  0  0  0  0  0  0  0  0  0  0  0
    4.4301   -0.8628    0.0000 C   0  0  0  0  0  0  0  0  0  0  0  0
    3.0012   -0.8628    0.0000 C   0  0  0  0  0  0  0  0  0  0  0  0
    4.4301   -1.6878    0.0000 C   0  0  0  0  0  0  0  0  0  0  0  0
    3.0012   -1.6878    0.0000 C   0  0  0  0  0  0  0  0  0  0  0  0
    3.7156    0.3747    0.0000 C   0  0  0  0  0  0  0  0  0  0  0  0
    4.4590    0.7327    0.0000 C   0  0  0  0  0  0  0  0  0  0  0  0
    2.9723    0.7327    0.0000 C   0  0  0  0  0  0  0  0  0  0  0  0
    4.6425    1.5370    0.0000 C   0  0  0  0  0  0  0  0  0  0  0  0
    3.7156   -2.9253    0.0000 C   0  0  0  0  0  0  0  0  0  0  0  0
    2.7887    1.5370    0.0000 C   0  0  0  0  0  0  0  0  0  0  0  0
    4.1281    2.1820    0.0000 C   0  0  0  0  0  0  0  0  0  0  0  0
    3.3031    2.1820    0.0000 C   0  0  0  0  0  0  0  0  0  0  0  0
    5.0798    0.1385    0.0000 C   0  0  0  0  0  0  0  0  0  0  0  0
    2.2671    0.3138    0.0000 C   0  0  0  0  0  0  0  0  0  0  0  0
    5.4597    1.8029    0.0000 C   0  0  0  0  0  0  0  0  0  0  0  0
    1.6500    0.8540    0.0000 C   0  0  0  0  0  0  0  0  0  0  0  0
    5.9029    0.3854    0.0000 C   0  0  0  0  0  0  0  0  0  0  0  0
    6.0941    1.2232    0.0000 C   0  0  0  0  0  0  0  0  0  0  0  0
  1 14  1  0  0  0  0
  1 20  1  0  0  0  0
  2 16  2  0  0  0  0
  3  7  1  0  0  0  0
  3  8  1  0  0  0  0
  3 13  1  0  0  0  0
  4  5  1  0  0  0  0
  4  6  1  0  0  0  0
  4  9  2  0  0  0  0
  5  7  1  0  0  0  0
  6  8  1  0  0  0  0
  9 10  1  0  0  0  0
  9 11  1  0  0  0  0
 10 12  1  0  0  0  0
 10 17  2  0  0  0  0
 11 14  2  0  0  0  0
 11 18  1  0  0  0  0
 12 15  1  0  0  0  0
 12 19  2  0  0  0  0
 14 16  1  0  0  0  0
 15 16  1  0  0  0  0
 17 21  1  0  0  0  0
 18 20  2  0  0  0  0
 19 22  1  0  0  0  0
 21 22  2  0  0  0  0
M  END
> <DRUGBANK_ID>
DB00920

> <DRUG_GROUPS>
approved

> <GENERIC_NAME>
Ketotifen

> <SYNONYMS>
Ketotifene; Ketotifeno; Ketotifenum

> <BRANDS>


> <CHEMICAL_FORMULA>
C19H19NOS

> <MOLECULAR_WEIGHT>
309.425

> <EXACT_MASS>
309.118734925

> <IUPAC_NAME>
2-(1-methylpiperidin-4-ylidene)-6-thiatricyclo[8.4.0.0^{3,7}]tetradeca-1(10),3(7),4,11,13-pentaen-8-one

> <IUPAC_TRADITIONAL_NAME>
ketotifen

> <INCHI_IDENTIFIER>
InChI=1S/C19H19NOS/c1-20-9-6-13(7-10-20)18-15-5-3-2-4-14(15)12-17(21)19-16(18)8-11-22-19/h2-5,8,11H,6-7,9-10,12H2,1H3

> <INCHI_KEY>
InChIKey=ZCVMWBYGMWKGHF-UHFFFAOYSA-N

> <SMILES>
CN1CCC(CC1)=C1C2=C(SC=C2)C(=O)CC2=CC=CC=C12

> <JCHEM_ACCEPTOR_COUNT>
2

> <JCHEM_DONOR_COUNT>
0

> <JCHEM_ACIDIC_PKA>
12.3

> <JCHEM_BASIC_PKA>
7.15

> <JCHEM_PHYSIOLOGICAL_CHARGE>
1

> <ALOGPS_LOGP>
3.49

> <JCHEM_LOGP>
3.35

> <ALOGPS_LOGS>
-4.6

> <JCHEM_POLARIZABILITY>
34.61

> <JCHEM_POLAR_SURFACE_AREA>
20.31

> <JCHEM_REFRACTIVITY>
101.73

> <JCHEM_ROTATABLE_BOND_COUNT>
0

> <ALOGPS_SOLUBILITY>
7.87e-03 g/l __ 

$$$$
