262
  Mrv0541 02231214332D          

 12 11  0  0  0  0            999 V2000
    7.3659   -0.4125    0.0000 Cl   0  0  0  0  0  0  0  0  0  0  0  0
    1.6500   -0.4125    0.0000 Cl   0  0  0  0  0  0  0  0  0  0  0  0
    4.5080   -1.2375    0.0000 O    0  0  0  0  0  0  0  0  0  0  0  0
    5.9370    1.2375    0.0000 O    0  0  0  0  0  0  0  0  0  0  0  0
    5.2224    0.0000    0.0000 N    0  0  0  0  0  0  0  0  0  0  0  0
    3.7935    0.0000    0.0000 N    0  0  0  0  0  0  0  0  0  0  0  0
    5.2224    0.8250    0.0000 N    0  0  0  0  0  0  0  0  0  0  0  0
    5.9370   -0.4125    0.0000 C    0  0  0  0  0  0  0  0  0  0  0  0
    3.0791   -0.4125    0.0000 C    0  0  0  0  0  0  0  0  0  0  0  0
    4.5080   -0.4125    0.0000 C    0  0  0  0  0  0  0  0  0  0  0  0
    6.6515    0.0000    0.0000 C    0  0  0  0  0  0  0  0  0  0  0  0
    2.3645    0.0000    0.0000 C    0  0  0  0  0  0  0  0  0  0  0  0
  1 11  1  0  0  0  0
  2 12  1  0  0  0  0
  3 10  2  0  0  0  0
  4  7  2  0  0  0  0
  5  7  1  0  0  0  0
  5  8  1  0  0  0  0
  5 10  1  0  0  0  0
  6  9  1  0  0  0  0
  6 10  1  0  0  0  0
  8 11  1  0  0  0  0
  9 12  1  0  0  0  0
M  END
> <DRUGBANK_ID>
DB00262

> <DRUG_GROUPS>
approved

> <GENERIC_NAME>
Carmustine

> <SYNONYMS>
BCNU; bis-chloroethylnitrosourea; N,N'-Bis(2-chloroethyl)-N-nitrosourea

> <BRANDS>
Becenun; BiCNU; Carmubris; Carustine; Gliadel; Gliadel Wafer; Nitrumon

> <CHEMICAL_FORMULA>
C5H9Cl2N3O2

> <MOLECULAR_WEIGHT>
214.05

> <EXACT_MASS>
213.007181961

> <IUPAC_NAME>
1,3-bis(2-chloroethyl)-1-nitrosourea

> <IUPAC_TRADITIONAL_NAME>
1,3-bis(2-chloroethyl)-1-nitrosourea

> <INCHI_IDENTIFIER>
InChI=1S/C5H9Cl2N3O2/c6-1-3-8-5(11)10(9-12)4-2-7/h1-4H2,(H,8,11)

> <INCHI_KEY>
InChIKey=DLGOEMSEDOSKAD-UHFFFAOYSA-N

> <SMILES>
ClCCNC(=O)N(CCCl)N=O

> <JCHEM_ACCEPTOR_COUNT>
2

> <JCHEM_DONOR_COUNT>
1

> <JCHEM_ACIDIC_PKA>
11.96

> <JCHEM_BASIC_PKA>
-5.3

> <JCHEM_PHYSIOLOGICAL_CHARGE>
0

> <ALOGPS_LOGP>
1.24

> <JCHEM_LOGP>
1.02

> <ALOGPS_LOGS>
-2.1

> <JCHEM_POLARIZABILITY>
18.8

> <JCHEM_POLAR_SURFACE_AREA>
61.77

> <JCHEM_REFRACTIVITY>
46.98

> <JCHEM_ROTATABLE_BOND_COUNT>
5

> <ALOGPS_SOLUBILITY>
1.53e+00 g/l __ 

$$$$
