777
  Mrv0541 02231215002D          

 24 26  0  0  1  0            999 V2000
    3.6957   -1.9664    0.0000 S   0  0  0  0  0  0  0  0  0  0  0  0
    6.4888    0.4289    0.0000 O   0  0  0  0  0  0  0  0  0  0  0  0
    3.6957   -0.3823    0.0000 N   0  0  0  0  0  0  0  0  0  0  0  0
    3.0099    1.5979    0.0000 N   0  0  0  0  0  0  0  0  0  0  0  0
    3.0099    0.8058    0.0000 C   0  0  0  0  0  0  0  0  0  0  0  0
    3.6957    0.4098    0.0000 C   0  0  0  0  0  0  0  0  0  0  0  0
    4.3817   -0.7783    0.0000 C   0  0  0  0  0  0  0  0  0  0  0  0
    3.0099   -0.7783    0.0000 C   0  0  0  0  0  0  0  0  0  0  0  0
    2.3239    0.4098    0.0000 C   0  0  0  0  0  0  0  0  0  0  0  0
    4.3817   -1.5704    0.0000 C   0  0  0  0  0  0  0  0  0  0  0  0
    3.0099   -1.5704    0.0000 C   0  0  0  0  0  0  0  0  0  0  0  0
    5.0898   -0.3548    0.0000 C   0  0  0  0  0  0  0  0  0  0  0  0
    2.3018   -0.3548    0.0000 C   0  0  0  0  0  0  0  0  0  0  0  0
    2.3239    1.9939    0.0000 C   0  0  0  0  0  0  0  0  0  0  0  0
    3.6957    1.9939    0.0000 C   0  0  0  0  0  0  0  0  0  0  0  0
    5.8075   -0.7619    0.0000 C   0  0  0  0  0  0  0  0  0  0  0  0
    5.0898   -1.9939    0.0000 C   0  0  0  0  0  0  0  0  0  0  0  0
    2.3018   -1.9939    0.0000 C   0  0  0  0  0  0  0  0  0  0  0  0
    5.8075   -1.5869    0.0000 C   0  0  0  0  0  0  0  0  0  0  0  0
    1.5841   -0.7619    0.0000 C   0  0  0  0  0  0  0  0  0  0  0  0
    1.5841   -1.5869    0.0000 C   0  0  0  0  0  0  0  0  0  0  0  0
    6.4919   -0.3632    0.0000 C   0  0  0  0  0  0  0  0  0  0  0  0
    7.1793   -0.7565    0.0000 C   0  0  0  0  0  0  0  0  0  0  0  0
    7.8638   -0.3578    0.0000 C   0  0  0  0  0  0  0  0  0  0  0  0
  1 10  1  0  0  0  0
  1 11  1  0  0  0  0
  2 22  2  0  0  0  0
  3  6  1  0  0  0  0
  3  7  1  0  0  0  0
  3  8  1  0  0  0  0
  4  5  1  0  0  0  0
  4 14  1  0  0  0  0
  4 15  1  0  0  0  0
  5  6  1  0  0  0  0
  5  9  1  0  0  0  0
  7 10  2  0  0  0  0
  7 12  1  0  0  0  0
  8 11  1  0  0  0  0
  8 13  2  0  0  0  0
 10 17  1  0  0  0  0
 11 18  2  0  0  0  0
 12 16  2  0  0  0  0
 13 20  1  0  0  0  0
 16 19  1  0  0  0  0
 16 22  1  0  0  0  0
 17 19  2  0  0  0  0
 18 21  1  0  0  0  0
 20 21  2  0  0  0  0
 22 23  1  0  0  0  0
 23 24  1  0  0  0  0
M  END
> <DRUGBANK_ID>
DB00777

> <DRUG_GROUPS>
approved

> <GENERIC_NAME>
Propiomazine

> <SYNONYMS>
Propiomazin; Propiomazina; Propiomazine; Propiomazinum

> <BRANDS>
Dorevan; Dorevane; Indorm; Largon; Propavan; Serentin

> <CHEMICAL_FORMULA>
C20H24N2OS

> <MOLECULAR_WEIGHT>
340.482

> <EXACT_MASS>
340.16093409

> <IUPAC_NAME>
1-{10-[2-(dimethylamino)propyl]-10H-phenothiazin-2-yl}propan-1-one

> <IUPAC_TRADITIONAL_NAME>
propiomazine

> <INCHI_IDENTIFIER>
InChI=1S/C20H24N2OS/c1-5-18(23)15-10-11-20-17(12-15)22(13-14(2)21(3)4)16-8-6-7-9-19(16)24-20/h6-12,14H,5,13H2,1-4H3

> <INCHI_KEY>
InChIKey=UVOIBTBFPOZKGP-UHFFFAOYSA-N

> <SMILES>
CCC(=O)C1=CC2=C(SC3=CC=CC=C3N2CC(C)N(C)C)C=C1

> <JCHEM_ACCEPTOR_COUNT>
3

> <JCHEM_DONOR_COUNT>
0

> <JCHEM_ACIDIC_PKA>
16.64

> <JCHEM_BASIC_PKA>
8.32

> <JCHEM_PHYSIOLOGICAL_CHARGE>
1

> <ALOGPS_LOGP>
4.53

> <JCHEM_LOGP>
4.55

> <ALOGPS_LOGS>
-4.7

> <JCHEM_POLARIZABILITY>
38.62

> <JCHEM_POLAR_SURFACE_AREA>
23.55

> <JCHEM_REFRACTIVITY>
103.53

> <JCHEM_ROTATABLE_BOND_COUNT>
5

> <ALOGPS_SOLUBILITY>
7.03e-03 g/l __ 

$$$$
