
  Mrv0541 04191212152D          

 29 31  0  0  0  0            999 V2000
    7.0156  -13.1170    0.0000 C    0  0  0  0  0  0  0  0  0  0  0  0
    7.0156  -13.9434    0.0000 C    0  0  0  0  0  0  0  0  0  0  0  0
    7.7179  -14.3565    0.0000 C    0  0  0  0  0  0  0  0  0  0  0  0
    8.4616  -13.9434    0.0000 C    0  0  0  0  0  0  0  0  0  0  0  0
    8.4616  -13.1170    0.0000 C    0  0  0  0  0  0  0  0  0  0  0  0
    7.7179  -12.7038    0.0000 C    0  0  0  0  0  0  0  0  0  0  0  0
    9.8664  -13.9434    0.0000 C    0  0  0  0  0  0  0  0  0  0  0  0
    9.8664  -13.1170    0.0000 C    0  0  0  0  0  0  0  0  0  0  0  0
    9.1640  -12.7038    0.0000 C    0  0  0  0  0  0  0  0  0  0  0  0
   10.6101  -14.3565    0.0000 C    0  0  0  0  0  0  0  0  0  0  0  0
   11.3125  -13.9434    0.0000 C    0  0  0  0  0  0  0  0  0  0  0  0
   11.3125  -13.1170    0.0000 C    0  0  0  0  0  0  0  0  0  0  0  0
   10.6101  -12.7038    0.0000 C    0  0  0  0  0  0  0  0  0  0  0  0
    9.1640  -11.8775    0.0000 C    0  0  0  0  0  0  0  0  0  0  0  0
   12.0298  -14.3537    0.0000 O    0  0  0  0  0  0  0  0  0  0  0  0
   12.7313  -13.9447    0.0000 C    0  0  0  0  0  0  0  0  0  0  0  0
   13.4374  -14.3486    0.0000 C    0  0  0  0  0  0  0  0  0  0  0  0
   14.1347  -13.9423    0.0000 N    0  0  0  0  0  0  0  0  0  0  0  0
   14.8429  -14.3474    0.0000 C    0  0  0  0  0  0  0  0  0  0  0  0
   15.5391  -13.9416    0.0000 C    0  0  0  0  0  0  0  0  0  0  0  0
   14.1313  -13.1171    0.0000 C    0  0  0  0  0  0  0  0  0  0  0  0
   14.8384  -12.7049    0.0000 C    0  0  0  0  0  0  0  0  0  0  0  0
    8.4484  -11.4643    0.0000 Cl   0  0  0  0  0  0  0  0  0  0  0  0
    9.8770  -11.4659    0.0000 C    0  0  0  0  0  0  0  0  0  0  0  0
   10.5737  -11.8681    0.0000 C    0  0  0  0  0  0  0  0  0  0  0  0
   11.2882  -11.4556    0.0000 C    0  0  0  0  0  0  0  0  0  0  0  0
   11.2882  -10.6306    0.0000 C    0  0  0  0  0  0  0  0  0  0  0  0
   10.5915  -10.2283    0.0000 C    0  0  0  0  0  0  0  0  0  0  0  0
    9.8770  -10.6408    0.0000 C    0  0  0  0  0  0  0  0  0  0  0  0
  1  2  2  0  0  0  0
  2  3  1  0  0  0  0
  3  4  2  0  0  0  0
  4  5  1  0  0  0  0
  5  6  2  0  0  0  0
  1  6  1  0  0  0  0
  7  8  1  0  0  0  0
  8  9  1  0  0  0  0
  5  9  1  0  0  0  0
  7 10  2  0  0  0  0
 10 11  1  0  0  0  0
 11 12  2  0  0  0  0
 12 13  1  0  0  0  0
  8 13  2  0  0  0  0
  9 14  2  0  0  0  0
 11 15  1  0  0  0  0
 15 16  1  0  0  0  0
 16 17  1  0  0  0  0
 17 18  1  0  0  0  0
 18 19  1  0  0  0  0
 19 20  1  0  0  0  0
 18 21  1  0  0  0  0
 21 22  1  0  0  0  0
 14 23  1  4  0  0  0
 14 24  1  0  0  0  0
 24 25  2  0  0  0  0
 25 26  1  0  0  0  0
 26 27  2  0  0  0  0
 27 28  1  0  0  0  0
 28 29  2  0  0  0  0
 24 29  1  0  0  0  0
M  END
> <DRUGBANK_ID>
DB00882

> <DRUG_GROUPS>
approved; investigational

> <GENERIC_NAME>
Clomifene

> <SYNONYMS>
Clomifeno; Clomifenum; Clomiphene

> <SALTS>
Clomifene citrate

> <BRANDS>
Androxal; Clomid; Clomifert; Clostilbegyt; Omifin

> <CHEMICAL_FORMULA>
C26H28ClNO

> <MOLECULAR_WEIGHT>
405.96

> <EXACT_MASS>
405.18594223

> <IUPAC_NAME>
{2-[4-(2-chloro-1,2-diphenylethenyl)phenoxy]ethyl}diethylamine

> <IUPAC_TRADITIONAL_NAME>
clomiphene

> <INCHI_IDENTIFIER>
InChI=1S/C26H28ClNO/c1-3-28(4-2)19-20-29-24-17-15-22(16-18-24)25(21-11-7-5-8-12-21)26(27)23-13-9-6-10-14-23/h5-18H,3-4,19-20H2,1-2H3/b26-25+

> <INCHI_KEY>
InChIKey=GKIRPKYJQBWNGO-OCEACIFDSA-N

> <SMILES>
CCN(CC)CCOC1=CC=C(C=C1)C(=C(Cl)C1=CC=CC=C1)C1=CC=CC=C1

> <JCHEM_ACCEPTOR_COUNT>
2

> <JCHEM_DONOR_COUNT>
0

> <JCHEM_BASIC_PKA>
9.31

> <JCHEM_PHYSIOLOGICAL_CHARGE>
1

> <ALOGPS_LOGP>
6.08

> <JCHEM_LOGP>
6.47

> <ALOGPS_LOGS>
-6

> <JCHEM_POLARIZABILITY>
46.7

> <JCHEM_POLAR_SURFACE_AREA>
12.47

> <JCHEM_REFRACTIVITY>
133.76

> <JCHEM_ROTATABLE_BOND_COUNT>
9

> <ALOGPS_SOLUBILITY>
4.14e-04 g/l __ 

$$$$
