967
  Mrv0541 02231215082D          

 22 25  0  0  0  0            999 V2000
    1.6500    1.6844    0.0000 Cl   0  0  0  0  0  0  0  0  0  0  0  0
    4.8159   -1.8854    0.0000 N    0  0  0  0  0  0  0  0  0  0  0  0
    6.1800    0.3534    0.0000 N    0  0  0  0  0  0  0  0  0  0  0  0
    4.8159   -0.2354    0.0000 C    0  0  0  0  0  0  0  0  0  0  0  0
    4.8159    0.5896    0.0000 C    0  0  0  0  0  0  0  0  0  0  0  0
    4.1014   -0.6479    0.0000 C    0  0  0  0  0  0  0  0  0  0  0  0
    5.5303   -0.6479    0.0000 C    0  0  0  0  0  0  0  0  0  0  0  0
    4.1014   -1.4729    0.0000 C    0  0  0  0  0  0  0  0  0  0  0  0
    5.5303   -1.4729    0.0000 C    0  0  0  0  0  0  0  0  0  0  0  0
    4.0726    0.9476    0.0000 C    0  0  0  0  0  0  0  0  0  0  0  0
    5.5592    0.9476    0.0000 C    0  0  0  0  0  0  0  0  0  0  0  0
    4.4034    2.3969    0.0000 C    0  0  0  0  0  0  0  0  0  0  0  0
    3.8890    1.7519    0.0000 C    0  0  0  0  0  0  0  0  0  0  0  0
    5.2284    2.3969    0.0000 C    0  0  0  0  0  0  0  0  0  0  0  0
    5.7427    1.7519    0.0000 C    0  0  0  0  0  0  0  0  0  0  0  0
    3.4517    0.3534    0.0000 C    0  0  0  0  0  0  0  0  0  0  0  0
    3.0718    2.0178    0.0000 C    0  0  0  0  0  0  0  0  0  0  0  0
    6.5599    2.0178    0.0000 C    0  0  0  0  0  0  0  0  0  0  0  0
    2.6286    0.6004    0.0000 C    0  0  0  0  0  0  0  0  0  0  0  0
    2.4374    1.4382    0.0000 C    0  0  0  0  0  0  0  0  0  0  0  0
    7.1943    1.4381    0.0000 C    0  0  0  0  0  0  0  0  0  0  0  0
    7.0031    0.6004    0.0000 C    0  0  0  0  0  0  0  0  0  0  0  0
  1 20  1  0  0  0  0
  2  8  1  0  0  0  0
  2  9  1  0  0  0  0
  3 11  1  0  0  0  0
  3 22  2  0  0  0  0
  4  5  2  0  0  0  0
  4  6  1  0  0  0  0
  4  7  1  0  0  0  0
  5 10  1  0  0  0  0
  5 11  1  0  0  0  0
  6  8  1  0  0  0  0
  7  9  1  0  0  0  0
 10 13  2  0  0  0  0
 10 16  1  0  0  0  0
 11 15  2  0  0  0  0
 12 13  1  0  0  0  0
 12 14  1  0  0  0  0
 13 17  1  0  0  0  0
 14 15  1  0  0  0  0
 15 18  1  0  0  0  0
 16 19  2  0  0  0  0
 17 20  2  0  0  0  0
 18 21  2  0  0  0  0
 19 20  1  0  0  0  0
 21 22  1  0  0  0  0
M  END
> <DRUGBANK_ID>
DB00967

> <DRUG_GROUPS>
approved; investigational

> <GENERIC_NAME>
Desloratadine

> <SYNONYMS>
Descarboethoxyloratadine

> <BRANDS>


> <CHEMICAL_FORMULA>
C19H19ClN2

> <MOLECULAR_WEIGHT>
310.821

> <EXACT_MASS>
310.123676325

> <IUPAC_NAME>
13-chloro-2-(piperidin-4-ylidene)-4-azatricyclo[9.4.0.0^{3,8}]pentadeca-1(11),3,5,7,12,14-hexaene

> <IUPAC_TRADITIONAL_NAME>
desloratadine

> <INCHI_IDENTIFIER>
InChI=1S/C19H19ClN2/c20-16-5-6-17-15(12-16)4-3-14-2-1-9-22-19(14)18(17)13-7-10-21-11-8-13/h1-2,5-6,9,12,21H,3-4,7-8,10-11H2

> <INCHI_KEY>
InChIKey=JAUOIFJMECXRGI-UHFFFAOYSA-N

> <SMILES>
ClC1=CC2=C(C=C1)C(=C1CCNCC1)C1=C(CC2)C=CC=N1

> <JCHEM_ACCEPTOR_COUNT>
2

> <JCHEM_DONOR_COUNT>
1

> <JCHEM_BASIC_PKA>
9.73

> <JCHEM_PHYSIOLOGICAL_CHARGE>
1

> <ALOGPS_LOGP>
3.48

> <JCHEM_LOGP>
3.97

> <ALOGPS_LOGS>
-4.9

> <JCHEM_POLARIZABILITY>
34.35

> <JCHEM_POLAR_SURFACE_AREA>
24.92

> <JCHEM_REFRACTIVITY>
101.04

> <JCHEM_ROTATABLE_BOND_COUNT>
0

> <ALOGPS_SOLUBILITY>
3.95e-03 g/l __ 

$$$$
