805
  Mrv0541 02231215012D          

 22 24  0  0  0  0            999 V2000
    2.3645   -3.3001    0.0000 O   0  0  0  0  0  0  0  0  0  0  0  0
    2.3645   -1.6500    0.0000 N   0  0  0  0  0  0  0  0  0  0  0  0
    3.0791    0.4125    0.0000 N   0  0  0  0  0  0  0  0  0  0  0  0
    4.5080    0.4125    0.0000 N   0  0  0  0  0  0  0  0  0  0  0  0
    5.2224    0.8250    0.0000 N   0  0  0  0  0  0  0  0  0  0  0  0
    1.6500   -2.0625    0.0000 C   0  0  0  0  0  0  0  0  0  0  0  0
    3.0791   -2.0625    0.0000 C   0  0  0  0  0  0  0  0  0  0  0  0
    2.3645   -0.8250    0.0000 C   0  0  0  0  0  0  0  0  0  0  0  0
    1.6500   -2.8876    0.0000 C   0  0  0  0  0  0  0  0  0  0  0  0
    3.0791   -2.8876    0.0000 C   0  0  0  0  0  0  0  0  0  0  0  0
    3.0791   -0.4125    0.0000 C   0  0  0  0  0  0  0  0  0  0  0  0
    3.7935    0.8250    0.0000 C   0  0  0  0  0  0  0  0  0  0  0  0
    3.7935    1.6500    0.0000 C   0  0  0  0  0  0  0  0  0  0  0  0
    4.5080    2.0625    0.0000 C   0  0  0  0  0  0  0  0  0  0  0  0
    5.2224    1.6500    0.0000 C   0  0  0  0  0  0  0  0  0  0  0  0
    3.0791    2.0625    0.0000 C   0  0  0  0  0  0  0  0  0  0  0  0
    5.9370    2.0625    0.0000 C   0  0  0  0  0  0  0  0  0  0  0  0
    5.9370    2.8876    0.0000 C   0  0  0  0  0  0  0  0  0  0  0  0
    6.6515    1.6500    0.0000 C   0  0  0  0  0  0  0  0  0  0  0  0
    6.6515    3.3001    0.0000 C   0  0  0  0  0  0  0  0  0  0  0  0
    7.3659    2.0625    0.0000 C   0  0  0  0  0  0  0  0  0  0  0  0
    7.3659    2.8876    0.0000 C   0  0  0  0  0  0  0  0  0  0  0  0
  1  9  1  0  0  0  0
  1 10  1  0  0  0  0
  2  6  1  0  0  0  0
  2  7  1  0  0  0  0
  2  8  1  0  0  0  0
  3 11  1  0  0  0  0
  3 12  1  0  0  0  0
  4  5  1  0  0  0  0
  4 12  2  0  0  0  0
  5 15  2  0  0  0  0
  6  9  1  0  0  0  0
  7 10  1  0  0  0  0
  8 11  1  0  0  0  0
 12 13  1  0  0  0  0
 13 14  2  0  0  0  0
 13 16  1  0  0  0  0
 14 15  1  0  0  0  0
 15 17  1  0  0  0  0
 17 18  2  0  0  0  0
 17 19  1  0  0  0  0
 18 20  1  0  0  0  0
 19 21  2  0  0  0  0
 20 22  2  0  0  0  0
 21 22  1  0  0  0  0
M  END
> <DRUGBANK_ID>
DB00805

> <DRUG_GROUPS>
approved

> <GENERIC_NAME>
Minaprine

> <SYNONYMS>
Minaprina; Minaprinum

> <SALTS>
Minaprine Dihydrochloride

> <BRANDS>
Cantor

> <CHEMICAL_FORMULA>
C17H22N4O

> <MOLECULAR_WEIGHT>
298.3828

> <EXACT_MASS>
298.179361346

> <IUPAC_NAME>
4-methyl-N-[2-(morpholin-4-yl)ethyl]-6-phenylpyridazin-3-amine

> <IUPAC_TRADITIONAL_NAME>
minaprine

> <INCHI_IDENTIFIER>
InChI=1S/C17H22N4O/c1-14-13-16(15-5-3-2-4-6-15)19-20-17(14)18-7-8-21-9-11-22-12-10-21/h2-6,13H,7-12H2,1H3,(H,18,20)

> <INCHI_KEY>
InChIKey=LDMWSLGGVTVJPG-UHFFFAOYSA-N

> <SMILES>
CC1=CC(=NN=C1NCCN1CCOCC1)C1=CC=CC=C1

> <JCHEM_ACCEPTOR_COUNT>
5

> <JCHEM_DONOR_COUNT>
1

> <JCHEM_ACIDIC_PKA>
19.25

> <JCHEM_BASIC_PKA>
6.28

> <JCHEM_PHYSIOLOGICAL_CHARGE>
0

> <ALOGPS_LOGP>
2.15

> <JCHEM_LOGP>
2.19

> <ALOGPS_LOGS>
-3.6

> <JCHEM_POLARIZABILITY>
33.82

> <JCHEM_POLAR_SURFACE_AREA>
50.28

> <JCHEM_REFRACTIVITY>
91.17

> <JCHEM_ROTATABLE_BOND_COUNT>
5

> <ALOGPS_SOLUBILITY>
7.01e-02 g/l __ 

$$$$
