904
  Mrv0541 02231215052D          

 22 25  0  0  1  0            999 V2000
    4.2713   -1.2750    0.0000 O   0  0  0  0  0  0  0  0  0  0  0  0
    3.5862    1.3159    0.0000 N   0  0  0  0  0  0  0  0  0  0  0  0
    6.6362   -0.7883    0.0000 N   0  0  0  0  0  0  0  0  0  0  0  0
    7.9103   -0.9271    0.0000 N   0  0  0  0  0  0  0  0  0  0  0  0
    5.3330   -0.3593    0.0000 C   0  0  0  0  0  0  0  0  0  0  0  0
    5.5880    0.4254    0.0000 C   0  0  0  0  0  0  0  0  0  0  0  0
    5.0312    1.0343    0.0000 C   0  0  0  0  0  0  0  0  0  0  0  0
    4.2270    0.8503    0.0000 C   0  0  0  0  0  0  0  0  0  0  0  0
    3.9822    0.0970    0.0000 C   0  0  0  0  0  0  0  0  0  0  0  0
    4.5248   -0.5246    0.0000 C   0  0  0  0  0  0  0  0  0  0  0  0
    5.8608   -0.9500    0.0000 C   0  0  0  0  0  0  0  0  0  0  0  0
    3.1901    0.0970    0.0000 C   0  0  0  0  0  0  0  0  0  0  0  0
    2.9453    0.8503    0.0000 C   0  0  0  0  0  0  0  0  0  0  0  0
    3.5862    2.1080    0.0000 C   0  0  0  0  0  0  0  0  0  0  0  0
    2.6475   -0.5246    0.0000 C   0  0  0  0  0  0  0  0  0  0  0  0
    2.1410    1.0343    0.0000 C   0  0  0  0  0  0  0  0  0  0  0  0
    7.2228   -1.3206    0.0000 C   0  0  0  0  0  0  0  0  0  0  0  0
    6.9613   -0.0659    0.0000 C   0  0  0  0  0  0  0  0  0  0  0  0
    1.8392   -0.3593    0.0000 C   0  0  0  0  0  0  0  0  0  0  0  0
    1.5842    0.4254    0.0000 C   0  0  0  0  0  0  0  0  0  0  0  0
    7.7487   -0.1518    0.0000 C   0  0  0  0  0  0  0  0  0  0  0  0
    7.1370   -2.1080    0.0000 C   0  0  0  0  0  0  0  0  0  0  0  0
  1 10  2  0  0  0  0
  2  8  1  0  0  0  0
  2 13  1  0  0  0  0
  2 14  1  0  0  0  0
  3 11  1  0  0  0  0
  3 17  1  0  0  0  0
  3 18  1  0  0  0  0
  4 17  2  0  0  0  0
  4 21  1  0  0  0  0
  5  6  1  0  0  0  0
  5 10  1  0  0  0  0
  5 11  1  0  0  0  0
  6  7  1  0  0  0  0
  7  8  1  0  0  0  0
  8  9  2  0  0  0  0
  9 10  1  0  0  0  0
  9 12  1  0  0  0  0
 12 13  1  0  0  0  0
 12 15  2  0  0  0  0
 13 16  2  0  0  0  0
 15 19  1  0  0  0  0
 16 20  1  0  0  0  0
 17 22  1  0  0  0  0
 18 21  2  0  0  0  0
 19 20  2  0  0  0  0
M  END
> <DRUGBANK_ID>
DB00904

> <DRUG_GROUPS>
approved

> <GENERIC_NAME>
Ondansetron

> <SALTS>
Ondansetron hydrochloride dihydrate

> <BRANDS>
Zofran; Zofran ODT; Zophren

> <CHEMICAL_FORMULA>
C18H19N3O

> <MOLECULAR_WEIGHT>
293.363

> <EXACT_MASS>
293.152812245

> <IUPAC_NAME>
9-methyl-3-[(2-methyl-1H-imidazol-1-yl)methyl]-2,3,4,9-tetrahydro-1H-carbazol-4-one

> <IUPAC_TRADITIONAL_NAME>
ondansetron

> <INCHI_IDENTIFIER>
InChI=1S/C18H19N3O/c1-12-19-9-10-21(12)11-13-7-8-16-17(18(13)22)14-5-3-4-6-15(14)20(16)2/h3-6,9-10,13H,7-8,11H2,1-2H3

> <INCHI_KEY>
InChIKey=FELGMEQIXOGIFQ-UHFFFAOYSA-N

> <SMILES>
CN1C2=C(C3=CC=CC=C13)C(=O)C(CN1C=CN=C1C)CC2

> <JCHEM_ACCEPTOR_COUNT>
2

> <JCHEM_DONOR_COUNT>
0

> <JCHEM_ACIDIC_PKA>
15.39

> <JCHEM_BASIC_PKA>
7.34

> <JCHEM_PHYSIOLOGICAL_CHARGE>
1

> <ALOGPS_LOGP>
2.56

> <JCHEM_LOGP>
2.35

> <ALOGPS_LOGS>
-3.1

> <JCHEM_POLARIZABILITY>
33.16

> <JCHEM_POLAR_SURFACE_AREA>
39.82

> <JCHEM_REFRACTIVITY>
86.78

> <JCHEM_ROTATABLE_BOND_COUNT>
2

> <ALOGPS_SOLUBILITY>
2.48e-01 g/l __ 

$$$$
