756
  Mrv0541 02231214592D          

 21 22  0  0  0  0            999 V2000
    5.1469    0.1168    0.0000 Cl   0  0  0  0  0  0  0  0  0  0  0  0
    4.9509   -0.9947    0.0000 Cl   0  0  0  0  0  0  0  0  0  0  0  0
    3.0257    2.6447    0.0000 Cl   0  0  0  0  0  0  0  0  0  0  0  0
    2.0930   -2.6447    0.0000 Cl   0  0  0  0  0  0  0  0  0  0  0  0
    5.7112    1.6673    0.0000 Cl   0  0  0  0  0  0  0  0  0  0  0  0
    4.9509   -2.6447    0.0000 Cl   0  0  0  0  0  0  0  0  0  0  0  0
    2.4613    1.0943    0.0000 O    0  0  0  0  0  0  0  0  0  0  0  0
    2.0930   -0.9947    0.0000 O    0  0  0  0  0  0  0  0  0  0  0  0
    3.5220   -0.1697    0.0000 C    0  0  0  0  0  0  0  0  0  0  0  0
    3.8041    0.6056    0.0000 C    0  0  0  0  0  0  0  0  0  0  0  0
    3.5220   -0.9947    0.0000 C    0  0  0  0  0  0  0  0  0  0  0  0
    3.2738    1.2375    0.0000 C    0  0  0  0  0  0  0  0  0  0  0  0
    2.8075   -1.4072    0.0000 C    0  0  0  0  0  0  0  0  0  0  0  0
    4.6166    0.7488    0.0000 C    0  0  0  0  0  0  0  0  0  0  0  0
    4.2364   -1.4072    0.0000 C    0  0  0  0  0  0  0  0  0  0  0  0
    3.5560    2.0128    0.0000 C    0  0  0  0  0  0  0  0  0  0  0  0
    2.8075   -2.2322    0.0000 C    0  0  0  0  0  0  0  0  0  0  0  0
    4.8988    1.5240    0.0000 C    0  0  0  0  0  0  0  0  0  0  0  0
    4.2364   -2.2322    0.0000 C    0  0  0  0  0  0  0  0  0  0  0  0
    4.3684    2.1560    0.0000 C    0  0  0  0  0  0  0  0  0  0  0  0
    3.5220   -2.6447    0.0000 C    0  0  0  0  0  0  0  0  0  0  0  0
  1 14  1  0  0  0  0
  2 15  1  0  0  0  0
  3 16  1  0  0  0  0
  4 17  1  0  0  0  0
  5 18  1  0  0  0  0
  6 19  1  0  0  0  0
  7 12  1  0  0  0  0
  8 13  1  0  0  0  0
  9 10  1  0  0  0  0
  9 11  1  0  0  0  0
 10 12  2  0  0  0  0
 10 14  1  0  0  0  0
 11 13  2  0  0  0  0
 11 15  1  0  0  0  0
 12 16  1  0  0  0  0
 13 17  1  0  0  0  0
 14 18  2  0  0  0  0
 15 19  2  0  0  0  0
 16 20  2  0  0  0  0
 17 21  2  0  0  0  0
 18 20  1  0  0  0  0
 19 21  1  0  0  0  0
M  END
> <DRUGBANK_ID>
DB00756

> <DRUG_GROUPS>
approved

> <GENERIC_NAME>
Hexachlorophene

> <BRANDS>
Acigena; Almederm; AT-17; AT-7; Bilevon; Exofene; Fostril; G-11; Gamophen; Germa-Medica; Hexosan; Nabac; pHisoHex; Septisol; Surofene

> <CHEMICAL_FORMULA>
C13H6Cl6O2

> <MOLECULAR_WEIGHT>
406.904

> <EXACT_MASS>
403.849895678

> <IUPAC_NAME>
3,4,6-trichloro-2-[(2,3,5-trichloro-6-hydroxyphenyl)methyl]phenol

> <IUPAC_TRADITIONAL_NAME>
hexachlorophene

> <INCHI_IDENTIFIER>
InChI=1S/C13H6Cl6O2/c14-6-2-8(16)12(20)4(10(6)18)1-5-11(19)7(15)3-9(17)13(5)21/h2-3,20-21H,1H2

> <INCHI_KEY>
InChIKey=ACGUYXCXAPNIKK-UHFFFAOYSA-N

> <SMILES>
OC1=C(CC2=C(O)C(Cl)=CC(Cl)=C2Cl)C(Cl)=C(Cl)C=C1Cl

> <JCHEM_ACCEPTOR_COUNT>
2

> <JCHEM_DONOR_COUNT>
2

> <JCHEM_ACIDIC_PKA>
5.15

> <JCHEM_BASIC_PKA>
-7.4

> <JCHEM_PHYSIOLOGICAL_CHARGE>
-1

> <ALOGPS_LOGP>
6.77

> <JCHEM_LOGP>
7.08

> <ALOGPS_LOGS>
-6

> <JCHEM_POLARIZABILITY>
34.07

> <JCHEM_POLAR_SURFACE_AREA>
40.46

> <JCHEM_REFRACTIVITY>
88.59

> <JCHEM_ROTATABLE_BOND_COUNT>
2

> <ALOGPS_SOLUBILITY>
4.33e-04 g/l __ 

$$$$
