235
  Mrv0541 02231214322D          

 16 17  0  0  0  0            999 V2000
    5.9370   -1.1880    0.0000 O   0  0  0  0  0  0  0  0  0  0  0  0
    4.5080   -1.1880    0.0000 N   0  0  0  0  0  0  0  0  0  0  0  0
    1.6500    1.2870    0.0000 N   0  0  0  0  0  0  0  0  0  0  0  0
    6.6515    0.8745    0.0000 N   0  0  0  0  0  0  0  0  0  0  0  0
    3.7935    0.0495    0.0000 C   0  0  0  0  0  0  0  0  0  0  0  0
    3.7935   -0.7755    0.0000 C   0  0  0  0  0  0  0  0  0  0  0  0
    3.0791    0.4620    0.0000 C   0  0  0  0  0  0  0  0  0  0  0  0
    4.5080    0.4620    0.0000 C   0  0  0  0  0  0  0  0  0  0  0  0
    5.2224    0.0495    0.0000 C   0  0  0  0  0  0  0  0  0  0  0  0
    3.0791   -1.1880    0.0000 C   0  0  0  0  0  0  0  0  0  0  0  0
    5.2224   -0.7755    0.0000 C   0  0  0  0  0  0  0  0  0  0  0  0
    2.3645    0.0495    0.0000 C   0  0  0  0  0  0  0  0  0  0  0  0
    3.0791    1.2870    0.0000 C   0  0  0  0  0  0  0  0  0  0  0  0
    1.6500    0.4620    0.0000 C   0  0  0  0  0  0  0  0  0  0  0  0
    2.3645    1.6995    0.0000 C   0  0  0  0  0  0  0  0  0  0  0  0
    5.9370    0.4620    0.0000 C   0  0  0  0  0  0  0  0  0  0  0  0
  1 11  2  0  0  0  0
  2  6  1  0  0  0  0
  2 11  1  0  0  0  0
  3 14  2  0  0  0  0
  3 15  1  0  0  0  0
  4 16  3  0  0  0  0
  5  6  2  0  0  0  0
  5  7  1  0  0  0  0
  5  8  1  0  0  0  0
  6 10  1  0  0  0  0
  7 12  2  0  0  0  0
  7 13  1  0  0  0  0
  8  9  2  0  0  0  0
  9 11  1  0  0  0  0
  9 16  1  0  0  0  0
 12 14  1  0  0  0  0
 13 15  2  0  0  0  0
M  END
> <DRUGBANK_ID>
DB00235

> <DRUG_GROUPS>
approved

> <GENERIC_NAME>
Milrinone

> <SYNONYMS>
1,6-Dihydro-2-methyl-6-oxo(3,4'-bipyridine)-5-carbonitrile

> <SALTS>
Milrinone Lactate

> <BRANDS>
Corotrop; Corotrope; Milrila; Primacor

> <CHEMICAL_FORMULA>
C12H9N3O

> <MOLECULAR_WEIGHT>
211.2194

> <EXACT_MASS>
211.074561925

> <IUPAC_NAME>
6-methyl-2-oxo-5-(pyridin-4-yl)-1,2-dihydropyridine-3-carbonitrile

> <IUPAC_TRADITIONAL_NAME>
milrinone

> <INCHI_IDENTIFIER>
InChI=1S/C12H9N3O/c1-8-11(9-2-4-14-5-3-9)6-10(7-13)12(16)15-8/h2-6H,1H3,(H,15,16)

> <INCHI_KEY>
InChIKey=PZRHRDRVRGEVNW-UHFFFAOYSA-N

> <SMILES>
CC1=C(C=C(C#N)C(=O)N1)C1=CC=NC=C1

> <JCHEM_ACCEPTOR_COUNT>
3

> <JCHEM_DONOR_COUNT>
1

> <JCHEM_ACIDIC_PKA>
7.54

> <JCHEM_BASIC_PKA>
4.82

> <JCHEM_PHYSIOLOGICAL_CHARGE>
0

> <ALOGPS_LOGP>
1.04

> <JCHEM_LOGP>
0.33

> <ALOGPS_LOGS>
-3

> <JCHEM_POLARIZABILITY>
21.46

> <JCHEM_POLAR_SURFACE_AREA>
65.78

> <JCHEM_REFRACTIVITY>
61.14

> <JCHEM_ROTATABLE_BOND_COUNT>
1

> <ALOGPS_SOLUBILITY>
2.09e-01 g/l __ 

$$$$
