2733
  Mrv0541 02231214372D          

 11 12  0  0  0  0            999 V2000
    1.6500    0.6625    0.0000 Cl   0  0  0  0  0  0  0  0  0  0  0  0
    4.5741   -0.8265    0.0000 O    0  0  0  0  0  0  0  0  0  0  0  0
    5.8806   -0.1625    0.0000 O    0  0  0  0  0  0  0  0  0  0  0  0
    4.5741    0.5014    0.0000 N    0  0  0  0  0  0  0  0  0  0  0  0
    3.7935    0.2500    0.0000 C    0  0  0  0  0  0  0  0  0  0  0  0
    3.7935   -0.5750    0.0000 C    0  0  0  0  0  0  0  0  0  0  0  0
    3.0789    0.6625    0.0000 C    0  0  0  0  0  0  0  0  0  0  0  0
    3.0789   -0.9875    0.0000 C    0  0  0  0  0  0  0  0  0  0  0  0
    2.3645    0.2500    0.0000 C    0  0  0  0  0  0  0  0  0  0  0  0
    5.0556   -0.1625    0.0000 C    0  0  0  0  0  0  0  0  0  0  0  0
    2.3645   -0.5750    0.0000 C    0  0  0  0  0  0  0  0  0  0  0  0
  1  9  1  0  0  0  0
  2  6  1  0  0  0  0
  2 10  1  0  0  0  0
  3 10  2  0  0  0  0
  4  5  1  0  0  0  0
  4 10  1  0  0  0  0
  5  6  2  0  0  0  0
  5  7  1  0  0  0  0
  6  8  1  0  0  0  0
  7  9  2  0  0  0  0
  8 11  2  0  0  0  0
  9 11  1  0  0  0  0
M  END
> <DRUGBANK_ID>
DB00356

> <DRUG_GROUPS>
approved

> <GENERIC_NAME>
Chlorzoxazone

> <SYNONYMS>
2-hydroxy-5-chlorobenzoxazole; 5-chloro-2(3H)-benzoxazolone; 5-chlorobenzoxazolin-2-one; Chlorzoxane

> <BRANDS>
EZE-DS; Paraflex; Parafon Forte DSC; Remular; Remular-S; Solaxin; Strifon Forte DSC

> <CHEMICAL_FORMULA>
C7H4ClNO2

> <MOLECULAR_WEIGHT>
169.565

> <EXACT_MASS>
168.993056084

> <IUPAC_NAME>
5-chloro-2,3-dihydro-1,3-benzoxazol-2-one

> <IUPAC_TRADITIONAL_NAME>
chlorzoxazone

> <INCHI_IDENTIFIER>
InChI=1S/C7H4ClNO2/c8-4-1-2-6-5(3-4)9-7(10)11-6/h1-3H,(H,9,10)

> <INCHI_KEY>
InChIKey=TZFWDZFKRBELIQ-UHFFFAOYSA-N

> <SMILES>
ClC1=CC2=C(OC(=O)N2)C=C1

> <JCHEM_ACCEPTOR_COUNT>
2

> <JCHEM_DONOR_COUNT>
1

> <JCHEM_ACIDIC_PKA>
9.39

> <JCHEM_BASIC_PKA>
-2.2

> <JCHEM_PHYSIOLOGICAL_CHARGE>
0

> <ALOGPS_LOGP>
2.09

> <JCHEM_LOGP>
1.94

> <ALOGPS_LOGS>
-1.8

> <JCHEM_POLARIZABILITY>
14.94

> <JCHEM_POLAR_SURFACE_AREA>
38.33

> <JCHEM_REFRACTIVITY>
41.07

> <JCHEM_ROTATABLE_BOND_COUNT>
0

> <ALOGPS_SOLUBILITY>
2.96e+00 g/l __ 

$$$$
