738
  Mrv0541 02231214582D          

 25 26  0  0  0  0            999 V2000
    5.6655   -2.6029    0.0000 O   0  0  0  0  0  0  0  0  0  0  0  0
    7.8089    1.1096    0.0000 O   0  0  0  0  0  0  0  0  0  0  0  0
    2.8075   -5.0780    0.0000 N   0  0  0  0  0  0  0  0  0  0  0  0
    8.5234    4.8222    0.0000 N   0  0  0  0  0  0  0  0  0  0  0  0
    2.0930   -3.8405    0.0000 N   0  0  0  0  0  0  0  0  0  0  0  0
    7.0944    4.8222    0.0000 N   0  0  0  0  0  0  0  0  0  0  0  0
    6.3799   -0.5404    0.0000 C   0  0  0  0  0  0  0  0  0  0  0  0
    6.3799   -1.3654    0.0000 C   0  0  0  0  0  0  0  0  0  0  0  0
    7.0944   -0.1279    0.0000 C   0  0  0  0  0  0  0  0  0  0  0  0
    5.6655   -1.7779    0.0000 C   0  0  0  0  0  0  0  0  0  0  0  0
    7.0944    0.6971    0.0000 C   0  0  0  0  0  0  0  0  0  0  0  0
    4.9509   -3.0154    0.0000 C   0  0  0  0  0  0  0  0  0  0  0  0
    7.8089    1.9347    0.0000 C   0  0  0  0  0  0  0  0  0  0  0  0
    4.2365   -2.6029    0.0000 C   0  0  0  0  0  0  0  0  0  0  0  0
    8.5234    2.3472    0.0000 C   0  0  0  0  0  0  0  0  0  0  0  0
    4.9509   -3.8405    0.0000 C   0  0  0  0  0  0  0  0  0  0  0  0
    7.0944    2.3472    0.0000 C   0  0  0  0  0  0  0  0  0  0  0  0
    3.5220   -3.8405    0.0000 C   0  0  0  0  0  0  0  0  0  0  0  0
    7.8089    3.5847    0.0000 C   0  0  0  0  0  0  0  0  0  0  0  0
    3.5220   -3.0154    0.0000 C   0  0  0  0  0  0  0  0  0  0  0  0
    8.5234    3.1722    0.0000 C   0  0  0  0  0  0  0  0  0  0  0  0
    4.2365   -4.2530    0.0000 C   0  0  0  0  0  0  0  0  0  0  0  0
    7.0944    3.1722    0.0000 C   0  0  0  0  0  0  0  0  0  0  0  0
    2.8075   -4.2530    0.0000 C   0  0  0  0  0  0  0  0  0  0  0  0
    7.8089    4.4097    0.0000 C   0  0  0  0  0  0  0  0  0  0  0  0
  1 10  1  0  0  0  0
  1 12  1  0  0  0  0
  2 11  1  0  0  0  0
  2 13  1  0  0  0  0
  3 24  1  0  0  0  0
  4 25  1  0  0  0  0
  5 24  2  0  0  0  0
  6 25  2  0  0  0  0
  7  8  1  0  0  0  0
  7  9  1  0  0  0  0
  8 10  1  0  0  0  0
  9 11  1  0  0  0  0
 12 14  2  0  0  0  0
 12 16  1  0  0  0  0
 13 15  2  0  0  0  0
 13 17  1  0  0  0  0
 14 20  1  0  0  0  0
 15 21  1  0  0  0  0
 16 22  2  0  0  0  0
 17 23  2  0  0  0  0
 18 20  2  0  0  0  0
 18 22  1  0  0  0  0
 18 24  1  0  0  0  0
 19 21  2  0  0  0  0
 19 23  1  0  0  0  0
 19 25  1  0  0  0  0
M  END
> <DRUGBANK_ID>
DB00738

> <DRUG_GROUPS>
approved

> <GENERIC_NAME>
Pentamidine

> <SYNONYMS>
Pentamidin; Pentamidina; Pentamidindiisetionat; Pentamidine; Pentamidinum

> <SALTS>
Pentamidine Isethionate

> <BRANDS>
NebuPent; Pentacarinat; Pentacrinat; Pentam; Pentam 300; Pentamidine isethionate; Pneumopent

> <CHEMICAL_FORMULA>
C19H24N4O2

> <MOLECULAR_WEIGHT>
340.4195

> <EXACT_MASS>
340.189926032

> <IUPAC_NAME>
4-{[5-(4-carbamimidoylphenoxy)pentyl]oxy}benzene-1-carboximidamide

> <IUPAC_TRADITIONAL_NAME>
pentamidine

> <INCHI_IDENTIFIER>
InChI=1S/C19H24N4O2/c20-18(21)14-4-8-16(9-5-14)24-12-2-1-3-13-25-17-10-6-15(7-11-17)19(22)23/h4-11H,1-3,12-13H2,(H3,20,21)(H3,22,23)

> <INCHI_KEY>
InChIKey=XDRYMKDFEDOLFX-UHFFFAOYSA-N

> <SMILES>
NC(=N)C1=CC=C(OCCCCCOC2=CC=C(C=C2)C(N)=N)C=C1

> <JCHEM_ACCEPTOR_COUNT>
6

> <JCHEM_DONOR_COUNT>
4

> <JCHEM_BASIC_PKA>
12.13

> <JCHEM_PHYSIOLOGICAL_CHARGE>
2

> <ALOGPS_LOGP>
1.32

> <JCHEM_LOGP>
2.32

> <ALOGPS_LOGS>
-4.2

> <JCHEM_POLARIZABILITY>
38.85

> <JCHEM_POLAR_SURFACE_AREA>
118.2

> <JCHEM_REFRACTIVITY>
120.53

> <JCHEM_ROTATABLE_BOND_COUNT>
10

> <ALOGPS_SOLUBILITY>
2.36e-02 g/l __ 

$$$$
