 
  Mrv0541 02231214372D          
 
 23 26  0  0  0  0            999 V2000
   13.5847   -8.0997    0.0000 C    0  0  0  0  0  0  0  0  0  0  0  0
   13.0879   -7.4451    0.0000 C    0  0  0  0  0  0  0  0  0  0  0  0
   13.2856   -6.6446    0.0000 C    0  0  0  0  0  0  0  0  0  0  0  0
   14.0296   -6.3036    0.0000 N    0  0  0  0  0  0  0  0  0  0  0  0
   14.4141   -8.1146    0.0000 N    0  0  0  0  0  0  0  0  0  0  0  0
   14.7692   -6.6707    0.0000 C    0  0  0  0  0  0  0  0  0  0  0  0
   14.9382   -7.4782    0.0000 C    0  0  0  0  0  0  0  0  0  0  0  0
   12.6915   -6.0733    0.0000 C    0  0  0  0  0  0  0  0  0  0  0  0
   11.8997   -6.3023    0.0000 C    0  0  0  0  0  0  0  0  0  0  0  0
   11.7020   -7.1028    0.0000 C    0  0  0  0  0  0  0  0  0  0  0  0
   12.2962   -7.6739    0.0000 C    0  0  0  0  0  0  0  0  0  0  0  0
   15.7236   -7.7361    0.0000 C    0  0  0  0  0  0  0  0  0  0  0  0
   16.3396   -7.1848    0.0000 C    0  0  0  0  0  0  0  0  0  0  0  0
   16.1706   -6.3773    0.0000 C    0  0  0  0  0  0  0  0  0  0  0  0
   15.3852   -6.1194    0.0000 C    0  0  0  0  0  0  0  0  0  0  0  0
   13.2104   -8.8370    0.0000 N    0  0  0  0  0  0  0  0  0  0  0  0
   12.3835   -8.8370    0.0000 C    0  0  0  0  0  0  0  0  0  0  0  0
   11.9700   -9.5531    0.0000 C    0  0  0  0  0  0  0  0  0  0  0  0
   12.3835  -10.2693    0.0000 N    0  0  0  0  0  0  0  0  0  0  0  0
   13.2104  -10.2693    0.0000 C    0  0  0  0  0  0  0  0  0  0  0  0
   13.6238   -9.5531    0.0000 C    0  0  0  0  0  0  0  0  0  0  0  0
   17.1389   -7.4474    0.0000 Cl   0  0  0  0  0  0  0  0  0  0  0  0
   11.9664  -10.9914    0.0000 C    0  0  0  0  0  0  0  0  0  0  0  0
  3  4  1  0  0  0  0
  1  5  2  0  0  0  0
  4  6  1  0  0  0  0
  2  3  1  0  0  0  0
  5  7  1  0  0  0  0
  1  2  1  0  0  0  0
  6  7  1  0  0  0  0
  3  8  2  0  0  0  0
  8  9  1  0  0  0  0
  9 10  2  0  0  0  0
 10 11  1  0  0  0  0
  2 11  2  0  0  0  0
  7 12  2  0  0  0  0
 12 13  1  0  0  0  0
 13 14  2  0  0  0  0
 14 15  1  0  0  0  0
  6 15  2  0  0  0  0
  1 16  1  0  0  0  0
 16 17  1  0  0  0  0
 17 18  1  0  0  0  0
 18 19  1  0  0  0  0
 19 20  1  0  0  0  0
 20 21  1  0  0  0  0
 16 21  1  0  0  0  0
 13 22  1  0  0  0  0
 19 23  1  0  0  0  0
M  END
> <DRUGBANK_ID>
DB00363

> <DRUG_GROUPS>
approved

> <GENERIC_NAME>
Clozapine

> <SYNONYMS>
Clozapin

> <BRANDS>


> <CHEMICAL_FORMULA>
C18H19ClN4

> <MOLECULAR_WEIGHT>
326.823

> <EXACT_MASS>
326.129824335

> <IUPAC_NAME>
6-chloro-10-(4-methylpiperazin-1-yl)-2,9-diazatricyclo[9.4.0.0^{3,8}]pentadeca-1(11),3(8),4,6,9,12,14-heptaene

> <IUPAC_TRADITIONAL_NAME>
6-chloro-10-(4-methylpiperazin-1-yl)-2,9-diazatricyclo[9.4.0.0^{3,8}]pentadeca-1(11),3(8),4,6,9,12,14-heptaene

> <INCHI_IDENTIFIER>
InChI=1S/C18H19ClN4/c1-22-8-10-23(11-9-22)18-14-4-2-3-5-15(14)20-16-7-6-13(19)12-17(16)21-18/h2-7,12,20H,8-11H2,1H3

> <INCHI_KEY>
InChIKey=QZUDBNBUXVUHMW-UHFFFAOYSA-N

> <SMILES>
CN1CCN(CC1)C1=NC2=CC(Cl)=CC=C2NC2=CC=CC=C12

> <JCHEM_ACCEPTOR_COUNT>
4

> <JCHEM_DONOR_COUNT>
1

> <JCHEM_ACIDIC_PKA>
15.9

> <JCHEM_BASIC_PKA>
7.35

> <JCHEM_PHYSIOLOGICAL_CHARGE>
1

> <ALOGPS_LOGP>
3.67

> <JCHEM_LOGP>
3.4

> <ALOGPS_LOGS>
-3.2

> <JCHEM_POLARIZABILITY>
35.77

> <JCHEM_POLAR_SURFACE_AREA>
30.87

> <JCHEM_REFRACTIVITY>
97.36

> <JCHEM_ROTATABLE_BOND_COUNT>
0

> <ALOGPS_SOLUBILITY>
1.86e-01 g/l __ 

$$$$
