912
  Mrv0541 02231215062D          

 33 35  0  0  1  0            999 V2000
    5.9370   -0.0495    0.0000 O   0  0  0  0  0  0  0  0  0  0  0  0
    3.0791    2.4256    0.0000 O   0  0  0  0  0  0  0  0  0  0  0  0
    5.2224    3.6631    0.0000 O   0  0  0  0  0  0  0  0  0  0  0  0
    3.7935    3.6631    0.0000 O   0  0  0  0  0  0  0  0  0  0  0  0
    7.3659   -2.5246    0.0000 N   0  0  0  0  0  0  0  0  0  0  0  0
    5.2224   -1.2870    0.0000 N   0  0  0  0  0  0  0  0  0  0  0  0
    6.6515   -2.9371    0.0000 C   0  0  0  0  0  0  0  0  0  0  0  0
    8.0804   -2.9371    0.0000 C   0  0  0  0  0  0  0  0  0  0  0  0
    6.6515   -3.7621    0.0000 C   0  0  0  0  0  0  0  0  0  0  0  0
    8.0804   -3.7621    0.0000 C   0  0  0  0  0  0  0  0  0  0  0  0
    7.3659   -4.1746    0.0000 C   0  0  0  0  0  0  0  0  0  0  0  0
    5.9370   -1.6995    0.0000 C   0  0  2  0  0  0  0  0  0  0  0  0
    7.3659   -1.6995    0.0000 C   0  0  0  0  0  0  0  0  0  0  0  0
    6.6515   -1.2870    0.0000 C   0  0  0  0  0  0  0  0  0  0  0  0
    5.9370   -2.5246    0.0000 C   0  0  0  0  0  0  0  0  0  0  0  0
    5.2224   -2.9371    0.0000 C   0  0  0  0  0  0  0  0  0  0  0  0
    8.0804   -1.2870    0.0000 C   0  0  0  0  0  0  0  0  0  0  0  0
    6.6515   -0.4620    0.0000 C   0  0  0  0  0  0  0  0  0  0  0  0
    5.2224   -3.7621    0.0000 C   0  0  0  0  0  0  0  0  0  0  0  0
    4.5080   -2.5246    0.0000 C   0  0  0  0  0  0  0  0  0  0  0  0
    8.0804   -0.4620    0.0000 C   0  0  0  0  0  0  0  0  0  0  0  0
    7.3659   -0.0495    0.0000 C   0  0  0  0  0  0  0  0  0  0  0  0
    5.2224   -0.4620    0.0000 C   0  0  0  0  0  0  0  0  0  0  0  0
    4.5080   -0.0495    0.0000 C   0  0  0  0  0  0  0  0  0  0  0  0
    4.5080    0.7755    0.0000 C   0  0  0  0  0  0  0  0  0  0  0  0
    3.7935    1.1880    0.0000 C   0  0  0  0  0  0  0  0  0  0  0  0
    5.2224    1.1880    0.0000 C   0  0  0  0  0  0  0  0  0  0  0  0
    3.7935    2.0130    0.0000 C   0  0  0  0  0  0  0  0  0  0  0  0
    5.2224    2.0130    0.0000 C   0  0  0  0  0  0  0  0  0  0  0  0
    4.5080    2.4256    0.0000 C   0  0  0  0  0  0  0  0  0  0  0  0
    4.5080    3.2506    0.0000 C   0  0  0  0  0  0  0  0  0  0  0  0
    2.3645    2.0130    0.0000 C   0  0  0  0  0  0  0  0  0  0  0  0
    1.6500    2.4256    0.0000 C   0  0  0  0  0  0  0  0  0  0  0  0
  1 23  2  0  0  0  0
  2 28  1  0  0  0  0
  2 32  1  0  0  0  0
  3 31  1  0  0  0  0
  4 31  2  0  0  0  0
  5  7  1  0  0  0  0
  5  8  1  0  0  0  0
  5 13  1  0  0  0  0
 12  6  1  6  0  0  0
  6 23  1  0  0  0  0
  7  9  1  0  0  0  0
  8 10  1  0  0  0  0
  9 11  1  0  0  0  0
 10 11  1  0  0  0  0
 12 14  1  0  0  0  0
 12 15  1  0  0  0  0
 13 14  1  0  0  0  0
 13 17  2  0  0  0  0
 14 18  2  0  0  0  0
 15 16  1  0  0  0  0
 16 19  1  0  0  0  0
 16 20  1  0  0  0  0
 17 21  1  0  0  0  0
 18 22  1  0  0  0  0
 21 22  2  0  0  0  0
 23 24  1  0  0  0  0
 24 25  1  0  0  0  0
 25 26  2  0  0  0  0
 25 27  1  0  0  0  0
 26 28  1  0  0  0  0
 27 29  2  0  0  0  0
 28 30  2  0  0  0  0
 29 30  1  0  0  0  0
 30 31  1  0  0  0  0
 32 33  1  0  0  0  0
M  END
> <DRUGBANK_ID>
DB00912

> <DRUG_GROUPS>
approved; investigational

> <GENERIC_NAME>
Repaglinide

> <SYNONYMS>
Repaglinida; Repaglinidum

> <BRANDS>
GlucoNorm; Prandin

> <CHEMICAL_FORMULA>
C27H36N2O4

> <MOLECULAR_WEIGHT>
452.5857

> <EXACT_MASS>
452.26750765

> <IUPAC_NAME>
2-ethoxy-4-({[(1S)-3-methyl-1-[2-(piperidin-1-yl)phenyl]butyl]carbamoyl}methyl)benzoic acid

> <IUPAC_TRADITIONAL_NAME>
repaglinide

> <INCHI_IDENTIFIER>
InChI=1S/C27H36N2O4/c1-4-33-25-17-20(12-13-22(25)27(31)32)18-26(30)28-23(16-19(2)3)21-10-6-7-11-24(21)29-14-8-5-9-15-29/h6-7,10-13,17,19,23H,4-5,8-9,14-16,18H2,1-3H3,(H,28,30)(H,31,32)/t23-/m0/s1

> <INCHI_KEY>
InChIKey=FAEKWTJYAYMJKF-QHCPKHFHSA-N

> <SMILES>
CCOC1=C(C=CC(CC(=O)N[C@@H](CC(C)C)C2=CC=CC=C2N2CCCCC2)=C1)C(O)=O

> <JCHEM_ACCEPTOR_COUNT>
5

> <JCHEM_DONOR_COUNT>
2

> <JCHEM_ACIDIC_PKA>
3.68

> <JCHEM_BASIC_PKA>
4.82

> <JCHEM_PHYSIOLOGICAL_CHARGE>
-1

> <ALOGPS_LOGP>
5.05

> <JCHEM_LOGP>
3.95

> <ALOGPS_LOGS>
-5.2

> <JCHEM_POLARIZABILITY>
51.49

> <JCHEM_POLAR_SURFACE_AREA>
78.87

> <JCHEM_REFRACTIVITY>
131.83

> <JCHEM_ROTATABLE_BOND_COUNT>
10

> <ALOGPS_SOLUBILITY>
2.94e-03 g/l __ 

$$$$
