
  Mrv0541 04191212112D          

 27 30  0  0  0  0            999 V2000
   -3.6241    0.0884    0.0000 C   0  0  0  0  0  0  0  0  0  0  0  0
   -4.3386   -0.3241    0.0000 C   0  0  0  0  0  0  0  0  0  0  0  0
   -4.3386   -1.1491    0.0000 C   0  0  0  0  0  0  0  0  0  0  0  0
   -3.6241   -1.5616    0.0000 C   0  0  0  0  0  0  0  0  0  0  0  0
   -2.9096   -1.1491    0.0000 C   0  0  0  0  0  0  0  0  0  0  0  0
   -2.9096   -0.3241    0.0000 C   0  0  0  0  0  0  0  0  0  0  0  0
   -2.1952    0.0884    0.0000 C   0  0  0  0  0  0  0  0  0  0  0  0
   -2.1952   -1.5616    0.0000 C   0  0  0  0  0  0  0  0  0  0  0  0
   -1.4807   -1.1491    0.0000 C   0  0  0  0  0  0  0  0  0  0  0  0
   -1.4807   -0.3241    0.0000 C   0  0  1  0  0  0  0  0  0  0  0  0
   -1.4807    1.3259    0.0000 C   0  0  2  0  0  0  0  0  0  0  0  0
   -2.1952    0.9134    0.0000 C   0  0  0  0  0  0  0  0  0  0  0  0
   -0.7662    0.0884    0.0000 N   0  0  0  0  0  0  0  0  0  0  0  0
   -0.7662    0.9134    0.0000 C   0  0  0  0  0  0  0  0  0  0  0  0
   -2.4087   -2.3585    0.0000 C   0  0  0  0  0  0  0  0  0  0  0  0
   -3.4106   -2.3585    0.0000 N   0  0  0  0  0  0  0  0  0  0  0  0
   -0.7662   -0.7366    0.0000 H   0  0  0  0  0  0  0  0  0  0  0  0
   -1.4807    2.1509    0.0000 C   0  0  0  0  0  0  0  0  0  0  0  0
   -0.0518   -0.3241    0.0000 C   0  0  0  0  0  0  0  0  0  0  0  0
   -0.7662    2.5634    0.0000 N   0  0  0  0  0  0  0  0  0  0  0  0
   -0.0518    2.1509    0.0000 C   0  0  0  0  0  0  0  0  0  0  0  0
    0.6627    2.5634    0.0000 C   0  0  0  0  0  0  0  0  0  0  0  0
    1.3772    2.1509    0.0000 C   0  0  0  0  0  0  0  0  0  0  0  0
   -2.1952    2.5634    0.0000 O   0  0  0  0  0  0  0  0  0  0  0  0
   -0.0518    1.3259    0.0000 C   0  0  0  0  0  0  0  0  0  0  0  0
    0.6627    0.9134    0.0000 O   0  0  0  0  0  0  0  0  0  0  0  0
   -3.8231   -3.0730    0.0000 C   0  0  0  0  0  0  0  0  0  0  0  0
  1  2  1  0  0  0  0
  1  6  2  0  0  0  0
  2  3  2  0  0  0  0
  3  4  1  0  0  0  0
  4  5  2  0  0  0  0
  7  6  1  0  0  0  0
  6  5  1  0  0  0  0
  5  8  1  0  0  0  0
  8  9  1  0  0  0  0
  9 10  1  0  0  0  0
 10 13  1  0  0  0  0
  7 10  1  0  0  0  0
 12  7  2  0  0  0  0
 11 12  1  0  0  0  0
 11 14  1  0  0  0  0
 13 14  1  0  0  0  0
  8 15  2  0  0  0  0
  4 16  1  0  0  0  0
 16 15  1  0  0  0  0
 10 17  1  1  0  0  0
 11 18  1  1  0  0  0
 13 19  1  0  0  0  0
 18 20  1  0  0  0  0
 20 21  1  0  0  0  0
 21 22  1  0  0  0  0
 22 23  1  0  0  0  0
 18 24  2  0  0  0  0
 21 25  1  0  0  0  0
 25 26  1  0  0  0  0
 16 27  1  0  0  0  0
M  END
> <DRUGBANK_ID>
DB00247

> <DRUG_GROUPS>
approved

> <GENERIC_NAME>
Methysergide

> <SYNONYMS>
1-Methyllysergic acid butanolamide; Methysergidum; Metisergido; N-(1-(Hydroxymethyl)propyl)-1-methyl-dextro-(+)-lysergamide

> <SALTS>
Methysergide maleate

> <BRANDS>
Deseril; Desernil; Sansert

> <CHEMICAL_FORMULA>
C21H27N3O2

> <MOLECULAR_WEIGHT>
353.458

> <EXACT_MASS>
353.210327123

> <IUPAC_NAME>
(4R,7R)-N-(1-hydroxybutan-2-yl)-6,11-dimethyl-6,11-diazatetracyclo[7.6.1.0^{2,7}.0^{12,16}]hexadeca-1(16),2,9,12,14-pentaene-4-carboxamide

> <IUPAC_TRADITIONAL_NAME>
(4R,7R)-N-(1-hydroxybutan-2-yl)-6,11-dimethyl-6,11-diazatetracyclo[7.6.1.0^{2,7}.0^{12,16}]hexadeca-1(16),2,9,12,14-pentaene-4-carboxamide

> <INCHI_IDENTIFIER>
InChI=1S/C21H27N3O2/c1-4-15(12-25)22-21(26)14-8-17-16-6-5-7-18-20(16)13(10-23(18)2)9-19(17)24(3)11-14/h5-8,10,14-15,19,25H,4,9,11-12H2,1-3H3,(H,22,26)/t14-,15?,19-/m1/s1

> <INCHI_KEY>
InChIKey=KPJZHOPZRAFDTN-NQUBZZJWSA-N

> <SMILES>
[H][C@@]12CC3=CN(C)C4=C3C(=CC=C4)C1=C[C@H](CN2C)C(=O)NC(CC)CO

> <JCHEM_ACCEPTOR_COUNT>
3

> <JCHEM_DONOR_COUNT>
2

> <JCHEM_ACIDIC_PKA>
15.01

> <JCHEM_BASIC_PKA>
7.85

> <JCHEM_PHYSIOLOGICAL_CHARGE>
1

> <ALOGPS_LOGP>
2.22

> <JCHEM_LOGP>
1.82

> <ALOGPS_LOGS>
-3.2

> <JCHEM_POLARIZABILITY>
40.41

> <JCHEM_POLAR_SURFACE_AREA>
57.5

> <JCHEM_REFRACTIVITY>
104.47

> <JCHEM_ROTATABLE_BOND_COUNT>
4

> <ALOGPS_SOLUBILITY>
2.24e-01 g/l __ 

$$$$
