507
  Mrv0541 02231214442D          

 21 22  0  0  0  0            999 V2000
    4.5550    0.9959    0.0000 S   0  0  0  0  0  0  0  0  0  0  0  0
    3.0791   -1.5516    0.0000 O   0  0  0  0  0  0  0  0  0  0  0  0
    3.7935   -0.3141    0.0000 O   0  0  0  0  0  0  0  0  0  0  0  0
    2.3645   -2.7891    0.0000 O   0  0  0  0  0  0  0  0  0  0  0  0
    4.6606    3.2016    0.0000 O   0  5  0  0  0  0  0  0  0  0  0  0
    3.5045    2.3617    0.0000 O   0  0  0  0  0  0  0  0  0  0  0  0
    5.2224   -0.3141    0.0000 N   0  0  0  0  0  0  0  0  0  0  0  0
    5.8899    0.9959    0.0000 N   0  0  0  0  0  0  0  0  0  0  0  0
    4.3250    2.4480    0.0000 N   0  3  0  0  0  0  0  0  0  0  0  0
    4.5080   -1.5516    0.0000 C   0  0  0  0  0  0  0  0  0  0  0  0
    3.7935   -1.9641    0.0000 C   0  0  0  0  0  0  0  0  0  0  0  0
    4.5080   -0.7266    0.0000 C   0  0  0  0  0  0  0  0  0  0  0  0
    5.2224   -1.9641    0.0000 C   0  0  0  0  0  0  0  0  0  0  0  0
    3.7935   -2.7891    0.0000 C   0  0  0  0  0  0  0  0  0  0  0  0
    5.2224   -2.7891    0.0000 C   0  0  0  0  0  0  0  0  0  0  0  0
    5.2224    0.5109    0.0000 C   0  0  0  0  0  0  0  0  0  0  0  0
    4.5080   -3.2016    0.0000 C   0  0  0  0  0  0  0  0  0  0  0  0
    4.8099    1.7805    0.0000 C   0  0  0  0  0  0  0  0  0  0  0  0
    5.6350    1.7805    0.0000 C   0  0  0  0  0  0  0  0  0  0  0  0
    2.3645   -1.9641    0.0000 C   0  0  0  0  0  0  0  0  0  0  0  0
    1.6500   -1.5516    0.0000 C   0  0  0  0  0  0  0  0  0  0  0  0
  1 16  1  0  0  0  0
  1 18  1  0  0  0  0
  2 11  1  0  0  0  0
  2 20  1  0  0  0  0
  3 12  2  0  0  0  0
  4 20  2  0  0  0  0
  5  9  1  0  0  0  0
  6  9  2  0  0  0  0
  7 12  1  0  0  0  0
  7 16  1  0  0  0  0
  8 16  2  0  0  0  0
  8 19  1  0  0  0  0
  9 18  1  0  0  0  0
 10 11  1  0  0  0  0
 10 12  1  0  0  0  0
 10 13  2  0  0  0  0
 11 14  2  0  0  0  0
 13 15  1  0  0  0  0
 14 17  1  0  0  0  0
 15 17  2  0  0  0  0
 18 19  2  0  0  0  0
 20 21  1  0  0  0  0
M  END
> <DRUGBANK_ID>
DB00507

> <DRUG_GROUPS>
approved; investigational

> <GENERIC_NAME>
Nitazoxanide

> <SYNONYMS>
Adrovet; Nitaxozanid; Nitaxozanide; Nitazoxanida; Nitazoxanidum; Nodik; Omniparax

> <BRANDS>
Alinia; Alpex Nizox; ANNITA; Azoxanid; Celectan; Colufase; Coluquim; Daxon; Dianide; Diar; Famidox; Kaside; Kazide; Larvisol; Lumbris; Mixel; Niazid; Nitax; Nitaxide; Nitazet; Nitazofin

> <CHEMICAL_FORMULA>
C12H9N3O5S

> <MOLECULAR_WEIGHT>
307.282

> <EXACT_MASS>
307.026291103

> <IUPAC_NAME>
2-[(5-nitro-1,3-thiazol-2-yl)carbamoyl]phenyl acetate

> <IUPAC_TRADITIONAL_NAME>
nitazoxanide

> <INCHI_IDENTIFIER>
InChI=1S/C12H9N3O5S/c1-7(16)20-9-5-3-2-4-8(9)11(17)14-12-13-6-10(21-12)15(18)19/h2-6H,1H3,(H,13,14,17)

> <INCHI_KEY>
InChIKey=YQNQNVDNTFHQSW-UHFFFAOYSA-N

> <SMILES>
CC(=O)OC1=CC=CC=C1C(=O)NC1=NC=C(S1)[N+]([O-])=O

> <JCHEM_ACCEPTOR_COUNT>
5

> <JCHEM_DONOR_COUNT>
1

> <JCHEM_ACIDIC_PKA>
8.3

> <JCHEM_BASIC_PKA>
-4.2

> <JCHEM_PHYSIOLOGICAL_CHARGE>
0

> <ALOGPS_LOGP>
2.14

> <JCHEM_LOGP>
2.12

> <ALOGPS_LOGS>
-4.6

> <JCHEM_POLARIZABILITY>
27.54

> <JCHEM_POLAR_SURFACE_AREA>
114.11

> <JCHEM_REFRACTIVITY>
73.89

> <JCHEM_ROTATABLE_BOND_COUNT>
5

> <ALOGPS_SOLUBILITY>
7.55e-03 g/l __ 

$$$$
