780
  Mrv0541 02231215002D          

 10 10  0  0  0  0            999 V2000
    3.0790    1.3942    0.0000 N   0  0  0  0  0  0  0  0  0  0  0  0
    3.7934    1.8067    0.0000 N   0  0  0  0  0  0  0  0  0  0  0  0
    2.3644    0.1568    0.0000 C   0  0  0  0  0  0  0  0  0  0  0  0
    2.3644   -0.6683    0.0000 C   0  0  0  0  0  0  0  0  0  0  0  0
    3.0790    0.5692    0.0000 C   0  0  0  0  0  0  0  0  0  0  0  0
    3.0790   -1.0808    0.0000 C   0  0  0  0  0  0  0  0  0  0  0  0
    1.6500   -1.0808    0.0000 C   0  0  0  0  0  0  0  0  0  0  0  0
    3.0790   -1.9058    0.0000 C   0  0  0  0  0  0  0  0  0  0  0  0
    1.6500   -1.9058    0.0000 C   0  0  0  0  0  0  0  0  0  0  0  0
    2.3644   -2.3182    0.0000 C   0  0  0  0  0  0  0  0  0  0  0  0
  1  2  1  0  0  0  0
  1  5  1  0  0  0  0
  3  4  1  0  0  0  0
  3  5  1  0  0  0  0
  4  6  2  0  0  0  0
  4  7  1  0  0  0  0
  6  8  1  0  0  0  0
  7  9  2  0  0  0  0
  8 10  2  0  0  0  0
  9 10  1  0  0  0  0
M  END
> <DRUGBANK_ID>
DB00780

> <DRUG_GROUPS>
approved

> <GENERIC_NAME>
Phenelzine

> <SYNONYMS>
Alazine; Fenelzina; Monofen; Phenelzin; Phénelzine; Phenelzinum; β-Phenylethylhydrazine

> <SALTS>
Phenelzine Sulfate; Phenelzine Sulphate

> <BRANDS>
Margyl; Nardelzine; Nardil; Phenelzine Sulfate

> <CHEMICAL_FORMULA>
C8H12N2

> <MOLECULAR_WEIGHT>
136.1943

> <EXACT_MASS>
136.100048394

> <IUPAC_NAME>
(2-phenylethyl)hydrazine

> <IUPAC_TRADITIONAL_NAME>
phenelzine

> <INCHI_IDENTIFIER>
InChI=1S/C8H12N2/c9-10-7-6-8-4-2-1-3-5-8/h1-5,10H,6-7,9H2

> <INCHI_KEY>
InChIKey=RMUCZJUITONUFY-UHFFFAOYSA-N

> <SMILES>
NNCCC1=CC=CC=C1

> <JCHEM_ACCEPTOR_COUNT>
2

> <JCHEM_DONOR_COUNT>
2

> <JCHEM_BASIC_PKA>
5.55

> <JCHEM_PHYSIOLOGICAL_CHARGE>
0

> <ALOGPS_LOGP>
1.2

> <JCHEM_LOGP>
1.2

> <ALOGPS_LOGS>
-1.1

> <JCHEM_POLARIZABILITY>
15.8

> <JCHEM_POLAR_SURFACE_AREA>
38.05

> <JCHEM_REFRACTIVITY>
54.26

> <JCHEM_ROTATABLE_BOND_COUNT>
3

> <ALOGPS_SOLUBILITY>
1.11e+01 g/l __ 

$$$$
