696
  Mrv0541 02231214562D          

 45 52  0  0  1  0            999 V2000
    3.6245    0.4404    0.0000 O   0  0  0  0  0  0  0  0  0  0  0  0
    2.7811    0.9170    0.0000 O   0  0  0  0  0  0  0  0  0  0  0  0
    3.7828    3.7179    0.0000 O   0  0  0  0  0  0  0  0  0  0  0  0
    5.6557    1.0731    0.0000 O   0  0  0  0  0  0  0  0  0  0  0  0
    4.4339   -1.3764    0.0000 O   0  0  0  0  0  0  0  0  0  0  0  0
    2.9473    2.5586    0.0000 N   0  0  0  0  0  0  0  0  0  0  0  0
    4.2860    1.5939    0.0000 N   0  0  0  0  0  0  0  0  0  0  0  0
    5.1436   -0.1361    0.0000 N   0  0  0  0  0  0  0  0  0  0  0  0
    7.3480   -1.3766    0.0000 N   0  0  0  0  0  0  0  0  0  0  0  0
    8.3230   -4.7727    0.0000 N   0  0  0  0  0  0  0  0  0  0  0  0
    2.8642    1.7378    0.0000 C   0  0  2  0  0  0  0  0  0  0  0  0
    3.5335    1.2554    0.0000 C   0  0  2  0  0  0  0  0  0  0  0  0
    2.0622    1.5663    0.0000 C   0  0  0  0  0  0  0  0  0  0  0  0
    4.3689    2.4147    0.0000 C   0  0  2  0  0  0  0  0  0  0  0  0
    2.1959    2.8873    0.0000 C   0  0  0  0  0  0  0  0  0  0  0  0
    1.6500    2.2753    0.0000 C   0  0  0  0  0  0  0  0  0  0  0  0
    4.4275    0.2737    0.0000 C   0  0  1  0  0  0  0  0  0  0  0  0
    3.6997    2.8970    0.0000 C   0  0  0  0  0  0  0  0  0  0  0  0
    4.8355    0.9851    0.0000 C   0  0  0  0  0  0  0  0  0  0  0  0
    5.1214    2.7532    0.0000 C   0  0  0  0  0  0  0  0  0  0  0  0
    4.2591   -0.5340    0.0000 C   0  0  0  0  0  0  0  0  0  0  0  0
    5.8628   -1.3708    0.0000 C   0  0  1  0  0  0  0  0  0  0  0  0
    7.3347   -2.2359    0.0000 C   0  0  1  0  0  0  0  0  0  0  0  0
    5.1468   -0.9611    0.0000 C   0  0  0  0  0  0  0  0  0  0  0  0
    5.2044    3.5740    0.0000 C   0  0  0  0  0  0  0  0  0  0  0  0
    6.6070   -0.9412    0.0000 C   0  0  0  0  0  0  0  0  0  0  0  0
    6.6202   -2.6484    0.0000 C   0  0  0  0  0  0  0  0  0  0  0  0
    8.0492   -2.6484    0.0000 C   0  0  0  0  0  0  0  0  0  0  0  0
    5.8695   -2.2302    0.0000 C   0  0  0  0  0  0  0  0  0  0  0  0
    6.6202   -3.4734    0.0000 C   0  0  0  0  0  0  0  0  0  0  0  0
    8.0492   -3.4734    0.0000 C   0  0  0  0  0  0  0  0  0  0  0  0
    7.3347   -3.8859    0.0000 C   0  0  0  0  0  0  0  0  0  0  0  0
    8.0672   -0.9724    0.0000 C   0  0  0  0  0  0  0  0  0  0  0  0
    5.9569    3.9125    0.0000 C   0  0  0  0  0  0  0  0  0  0  0  0
    4.5351    4.0563    0.0000 C   0  0  0  0  0  0  0  0  0  0  0  0
    7.3480   -4.7452    0.0000 C   0  0  0  0  0  0  0  0  0  0  0  0
    8.6572   -4.0238    0.0000 C   0  0  0  0  0  0  0  0  0  0  0  0
    5.8695   -3.8915    0.0000 C   0  0  0  0  0  0  0  0  0  0  0  0
    6.6070   -5.1805    0.0000 C   0  0  0  0  0  0  0  0  0  0  0  0
    6.0399    4.7333    0.0000 C   0  0  0  0  0  0  0  0  0  0  0  0
    4.6182    4.8772    0.0000 C   0  0  0  0  0  0  0  0  0  0  0  0
    5.8628   -4.7508    0.0000 C   0  0  0  0  0  0  0  0  0  0  0  0
    5.3706    5.2157    0.0000 C   0  0  0  0  0  0  0  0  0  0  0  0
    2.7287    1.0918    0.0000 H   0  0  0  0  0  0  0  0  0  0  0  0
    7.9088   -1.9102    0.0000 H   0  0  0  0  0  0  0  0  0  0  0  0
  1 12  1  0  0  0  0
  1 17  1  0  0  0  0
 12  2  1  6  0  0  0
  3 18  2  0  0  0  0
  4 19  2  0  0  0  0
  5 24  2  0  0  0  0
  6 11  1  0  0  0  0
  6 15  1  0  0  0  0
  6 18  1  0  0  0  0
  7 12  1  0  0  0  0
  7 14  1  0  0  0  0
  7 19  1  0  0  0  0
 17  8  1  6  0  0  0
  8 24  1  0  0  0  0
  9 23  1  0  0  0  0
  9 26  1  0  0  0  0
  9 33  1  0  0  0  0
 10 36  1  0  0  0  0
 10 37  1  0  0  0  0
 11 12  1  0  0  0  0
 11 13  1  0  0  0  0
 11 44  1  1  0  0  0
 13 16  1  0  0  0  0
 14 18  1  0  0  0  0
 14 20  1  6  0  0  0
 15 16  1  0  0  0  0
 17 19  1  0  0  0  0
 17 21  1  0  0  0  0
 20 25  1  0  0  0  0
 22 24  1  1  0  0  0
 22 26  1  0  0  0  0
 22 29  1  0  0  0  0
 23 27  1  0  0  0  0
 23 28  1  0  0  0  0
 23 45  1  1  0  0  0
 25 34  2  0  0  0  0
 25 35  1  0  0  0  0
 27 29  2  0  0  0  0
 27 30  1  0  0  0  0
 28 31  1  0  0  0  0
 30 32  2  0  0  0  0
 30 38  1  0  0  0  0
 31 32  1  0  0  0  0
 31 37  2  0  0  0  0
 32 36  1  0  0  0  0
 34 40  1  0  0  0  0
 35 41  2  0  0  0  0
 36 39  2  0  0  0  0
 38 42  2  0  0  0  0
 39 42  1  0  0  0  0
 40 43  2  0  0  0  0
 41 43  1  0  0  0  0
M  END
> <DRUGBANK_ID>
DB00696

> <DRUG_GROUPS>
approved

> <GENERIC_NAME>
Ergotamine

> <SYNONYMS>
Ergotamin; Ergotamina; Ergotamine; Ergotaminum

> <SALTS>
Ergotamine Tartrate

> <BRANDS>
Anervan; Antimigraine; Cafergot; Enxak; Ergam; Ergo-Kranit; Ergomar; Gynaemine; Wigrettes

> <CHEMICAL_FORMULA>
C33H35N5O5

> <MOLECULAR_WEIGHT>
581.6615

> <EXACT_MASS>
581.263819255

> <IUPAC_NAME>
(4R,7R)-N-[(1S,2S,4R,7S)-7-benzyl-2-hydroxy-4-methyl-5,8-dioxo-3-oxa-6,9-diazatricyclo[7.3.0.0^{2,6}]dodecan-4-yl]-6-methyl-6,11-diazatetracyclo[7.6.1.0^{2,7}.0^{12,16}]hexadeca-1(16),2,9,12,14-pentaene-4-carboxamide

> <IUPAC_TRADITIONAL_NAME>
ergotamine

> <INCHI_IDENTIFIER>
InChI=1S/C33H35N5O5/c1-32(35-29(39)21-15-23-22-10-6-11-24-28(22)20(17-34-24)16-25(23)36(2)18-21)31(41)38-26(14-19-8-4-3-5-9-19)30(40)37-13-7-12-27(37)33(38,42)43-32/h3-6,8-11,15,17,21,25-27,34,42H,7,12-14,16,18H2,1-2H3,(H,35,39)/t21-,25-,26+,27+,32-,33+/m1/s1

> <INCHI_KEY>
InChIKey=XCGSFFUVFURLIX-VFGNJEKYSA-N

> <SMILES>
[H][C@@]12CCCN1C(=O)[C@H](CC1=CC=CC=C1)N1C(=O)[C@](C)(NC(=O)[C@H]3CN(C)[C@]4([H])CC5=CNC6=CC=CC(=C56)C4=C3)O[C@@]21O

> <JCHEM_ACCEPTOR_COUNT>
6

> <JCHEM_DONOR_COUNT>
3

> <JCHEM_ACIDIC_PKA>
9.7

> <JCHEM_BASIC_PKA>
7.78

> <JCHEM_PHYSIOLOGICAL_CHARGE>
1

> <ALOGPS_LOGP>
2.95

> <JCHEM_LOGP>
2.6

> <ALOGPS_LOGS>
-3.4

> <JCHEM_POLARIZABILITY>
61.69

> <JCHEM_POLAR_SURFACE_AREA>
118.21

> <JCHEM_REFRACTIVITY>
160.17

> <JCHEM_ROTATABLE_BOND_COUNT>
4

> <ALOGPS_SOLUBILITY>
2.23e-01 g/l __ 

$$$$
