889
  Mrv0541 02231215052D          

 23 26  0  0  1  0            999 V2000
    3.5650   -0.0905    0.0000 O   0  0  0  0  0  0  0  0  0  0  0  0
    4.8553    3.0458    0.0000 N   0  0  0  0  0  0  0  0  0  0  0  0
    4.9232   -0.5344    0.0000 N   0  0  0  0  0  0  0  0  0  0  0  0
    4.3411   -2.1527    0.0000 N   0  0  0  0  0  0  0  0  0  0  0  0
    3.8597   -2.8166    0.0000 N   0  0  0  0  0  0  0  0  0  0  0  0
    5.8490    2.8483    0.0000 C   0  0  0  0  0  0  0  0  0  0  0  0
    6.2223    2.1125    0.0000 C   0  0  0  0  0  0  0  0  0  0  0  0
    4.6957    0.9181    0.0000 C   0  0  0  0  0  0  0  0  0  0  0  0
    5.9646    0.5033    0.0000 C   0  0  0  0  0  0  0  0  0  0  0  0
    5.1795    0.2497    0.0000 C   0  0  0  0  0  0  0  0  0  0  0  0
    7.2407    3.6008    0.0000 C   0  0  0  0  0  0  0  0  0  0  0  0
    7.8446    2.4104    0.0000 C   0  0  0  0  0  0  0  0  0  0  0  0
    7.9752    3.2250    0.0000 C   0  0  0  0  0  0  0  0  0  0  0  0
    4.0711    3.3021    0.0000 C   0  0  0  0  0  0  0  0  0  0  0  0
    4.1159   -0.7046    0.0000 C   0  0  0  0  0  0  0  0  0  0  0  0
    3.8597   -1.4887    0.0000 C   0  0  0  0  0  0  0  0  0  0  0  0
    3.0790   -1.7402    0.0000 C   0  0  0  0  0  0  0  0  0  0  0  0
    3.0790   -2.5652    0.0000 C   0  0  0  0  0  0  0  0  0  0  0  0
    2.3645   -1.3277    0.0000 C   0  0  0  0  0  0  0  0  0  0  0  0
    2.3645   -2.9777    0.0000 C   0  0  0  0  0  0  0  0  0  0  0  0
    4.1159   -3.6008    0.0000 C   0  0  0  0  0  0  0  0  0  0  0  0
    1.6500   -1.7402    0.0000 C   0  0  0  0  0  0  0  0  0  0  0  0
    1.6500   -2.5652    0.0000 C   0  0  0  0  0  0  0  0  0  0  0  0
  1 15  2  0  0  0  0
  2  6  1  0  0  0  0
  2  7  1  0  0  0  0
  2 14  1  0  0  0  0
  3 10  1  0  0  0  0
  3 15  1  0  0  0  0
  4  5  1  0  0  0  0
  4 16  2  0  0  0  0
  5 18  1  0  0  0  0
  5 21  1  0  0  0  0
  6  8  1  0  0  0  0
  6 11  1  0  0  0  0
  7  9  1  0  0  0  0
  7 12  1  0  0  0  0
  8 10  1  0  0  0  0
  9 10  1  0  0  0  0
 11 13  1  0  0  0  0
 12 13  1  0  0  0  0
 15 16  1  0  0  0  0
 16 17  1  0  0  0  0
 17 18  1  0  0  0  0
 17 19  2  0  0  0  0
 18 20  2  0  0  0  0
 19 22  1  0  0  0  0
 20 23  1  0  0  0  0
 22 23  2  0  0  0  0
M  END
> <DRUGBANK_ID>
DB00889

> <DRUG_GROUPS>
approved; investigational

> <GENERIC_NAME>
Granisetron

> <SYNONYMS>
Granisetronum

> <SALTS>
Granisetron Hydrochloride

> <BRANDS>
Kytril

> <CHEMICAL_FORMULA>
C18H24N4O

> <MOLECULAR_WEIGHT>
312.4094

> <EXACT_MASS>
312.19501141

> <IUPAC_NAME>
1-methyl-N-{9-methyl-9-azabicyclo[3.3.1]nonan-3-yl}-1H-indazole-3-carboxamide

> <IUPAC_TRADITIONAL_NAME>
1-methyl-N-{9-methyl-9-azabicyclo[3.3.1]nonan-3-yl}indazole-3-carboxamide

> <INCHI_IDENTIFIER>
InChI=1S/C18H24N4O/c1-21-13-6-5-7-14(21)11-12(10-13)19-18(23)17-15-8-3-4-9-16(15)22(2)20-17/h3-4,8-9,12-14H,5-7,10-11H2,1-2H3,(H,19,23)

> <INCHI_KEY>
InChIKey=MFWNKCLOYSRHCJ-UHFFFAOYSA-N

> <SMILES>
CN1N=C(C(=O)NC2CC3CCCC(C2)N3C)C2=CC=CC=C12

> <JCHEM_ACCEPTOR_COUNT>
3

> <JCHEM_DONOR_COUNT>
1

> <JCHEM_ACIDIC_PKA>
14.75

> <JCHEM_BASIC_PKA>
9

> <JCHEM_PHYSIOLOGICAL_CHARGE>
1

> <ALOGPS_LOGP>
2.64

> <JCHEM_LOGP>
1.88

> <ALOGPS_LOGS>
-2.9

> <JCHEM_POLARIZABILITY>
35.39

> <JCHEM_POLAR_SURFACE_AREA>
50.16

> <JCHEM_REFRACTIVITY>
101.83

> <JCHEM_ROTATABLE_BOND_COUNT>
2

> <ALOGPS_SOLUBILITY>
4.34e-01 g/l __ 

$$$$
