599
  Mrv0541 02231214482D          

 16 16  0  0  1  0            999 V2000
    3.0791   -2.6665    0.0000 S   0  0  0  0  0  0  0  0  0  0  0  0
    4.5080   -0.1915    0.0000 O   0  0  0  0  0  0  0  0  0  0  0  0
    1.6500   -0.1915    0.0000 O   0  0  0  0  0  0  0  0  0  0  0  0
    3.7935   -1.4290    0.0000 N   0  0  0  0  0  0  0  0  0  0  0  0
    2.3645   -1.4290    0.0000 N   0  0  0  0  0  0  0  0  0  0  0  0
    3.0791   -0.1915    0.0000 C   0  0  0  0  0  0  0  0  0  0  0  0
    3.4916    0.5231    0.0000 C   0  0  0  0  0  0  0  0  0  0  0  0
    3.0791    1.2375    0.0000 C   0  0  0  0  0  0  0  0  0  0  0  0
    2.6665    0.5231    0.0000 C   0  0  0  0  0  0  0  0  0  0  0  0
    3.7935   -0.6040    0.0000 C   0  0  0  0  0  0  0  0  0  0  0  0
    2.3645   -0.6040    0.0000 C   0  0  0  0  0  0  0  0  0  0  0  0
    4.3166    0.5231    0.0000 C   0  0  0  0  0  0  0  0  0  0  0  0
    3.4916    1.9520    0.0000 C   0  0  0  0  0  0  0  0  0  0  0  0
    1.8415    0.5231    0.0000 C   0  0  0  0  0  0  0  0  0  0  0  0
    3.0791   -1.8415    0.0000 C   0  0  0  0  0  0  0  0  0  0  0  0
    3.0791    2.6665    0.0000 C   0  0  0  0  0  0  0  0  0  0  0  0
  1 15  2  0  0  0  0
  2 10  2  0  0  0  0
  3 11  2  0  0  0  0
  4 10  1  0  0  0  0
  4 15  1  0  0  0  0
  5 11  1  0  0  0  0
  5 15  1  0  0  0  0
  6  7  1  0  0  0  0
  6  9  1  0  0  0  0
  6 10  1  0  0  0  0
  6 11  1  0  0  0  0
  7  8  1  0  0  0  0
  7 12  1  0  0  0  0
  8 13  1  0  0  0  0
  9 14  1  0  0  0  0
 13 16  1  0  0  0  0
M  END
> <DRUGBANK_ID>
DB00599

> <DRUG_GROUPS>
approved

> <GENERIC_NAME>
Thiopental

> <SYNONYMS>
Bitaryl; Omexolon; Sodium Pentothal; Thiomebumalum; Thiopentone; Tiopentale; Trapanal

> <BRANDS>
Anestho; Bensulf; Bitol Sodium; Ekipental; Farmotal; Intraval Sodium; Pental Sodyum; Pentazol; Penthal; Penthotal Sodium; Pentotan; Pentotex; Pentothal; Ravonal; Thiopen; Tiopental; Trapanal

> <CHEMICAL_FORMULA>
C11H18N2O2S

> <MOLECULAR_WEIGHT>
242.338

> <EXACT_MASS>
242.10889852

> <IUPAC_NAME>
5-ethyl-5-(pentan-2-yl)-2-sulfanylidene-1,3-diazinane-4,6-dione

> <IUPAC_TRADITIONAL_NAME>
thiopental

> <INCHI_IDENTIFIER>
InChI=1S/C11H18N2O2S/c1-4-6-7(3)11(5-2)8(14)12-10(16)13-9(11)15/h7H,4-6H2,1-3H3,(H2,12,13,14,15,16)

> <INCHI_KEY>
InChIKey=IUJDSEJGGMCXSG-UHFFFAOYSA-N

> <SMILES>
CCCC(C)C1(CC)C(=O)NC(=S)NC1=O

> <JCHEM_ACCEPTOR_COUNT>
2

> <JCHEM_DONOR_COUNT>
2

> <JCHEM_ACIDIC_PKA>
7.2

> <JCHEM_BASIC_PKA>
-3

> <JCHEM_PHYSIOLOGICAL_CHARGE>
0

> <ALOGPS_LOGP>
3.05

> <JCHEM_LOGP>
2.78

> <ALOGPS_LOGS>
-3.8

> <JCHEM_POLARIZABILITY>
25.7

> <JCHEM_POLAR_SURFACE_AREA>
58.2

> <JCHEM_REFRACTIVITY>
65.99

> <JCHEM_ROTATABLE_BOND_COUNT>
4

> <ALOGPS_SOLUBILITY>
3.98e-02 g/l __ 

$$$$
