
  Mrv0541 04191212142D          

 26 29  0  0  1  0            999 V2000
    4.1207   -4.5812    0.0000 N   0  3  2  0  0  0  0  0  0  0  0  0
    4.8379   -3.3448    0.0000 C   0  0  0  0  0  0  0  0  0  0  0  0
    4.8379   -4.1732    0.0000 C   0  0  0  0  0  0  0  0  0  0  0  0
    4.1207   -2.9369    0.0000 C   0  0  1  0  0  0  0  0  0  0  0  0
    3.4119   -4.1732    0.0000 C   0  0  0  0  0  0  0  0  0  0  0  0
    3.7501   -3.8760    0.0000 C   0  0  0  0  0  0  0  0  0  0  0  0
    3.4119   -3.3448    0.0000 C   0  0  0  0  0  0  0  0  0  0  0  0
    4.4504   -3.6787    0.0000 C   0  0  0  0  0  0  0  0  0  0  0  0
    4.1207   -5.3354    0.0000 C   0  0  0  0  0  0  0  0  0  0  0  0
    5.5510   -2.9301    0.0000 O   0  0  0  0  0  0  0  0  0  0  0  0
    6.2668   -3.3404    0.0000 C   0  0  0  0  0  0  0  0  0  0  0  0
    6.9799   -2.9256    0.0000 C   0  0  0  0  0  0  0  0  0  0  0  0
    6.2694   -4.1653    0.0000 O   0  0  0  0  0  0  0  0  0  0  0  0
    7.6957   -3.3358    0.0000 O   0  0  0  0  0  0  0  0  0  0  0  0
    6.3966   -2.3422    0.0000 C   0  0  0  0  0  0  0  0  0  0  0  0
    7.5633   -2.3422    0.0000 C   0  0  0  0  0  0  0  0  0  0  0  0
    5.5997   -2.5558    0.0000 C   0  0  0  0  0  0  0  0  0  0  0  0
    5.0163   -1.9724    0.0000 C   0  0  0  0  0  0  0  0  0  0  0  0
    5.2298   -1.1755    0.0000 C   0  0  0  0  0  0  0  0  0  0  0  0
    6.6101   -1.5453    0.0000 C   0  0  0  0  0  0  0  0  0  0  0  0
    6.0267   -0.9620    0.0000 C   0  0  0  0  0  0  0  0  0  0  0  0
    8.3602   -2.5558    0.0000 C   0  0  0  0  0  0  0  0  0  0  0  0
    8.9436   -1.9724    0.0000 C   0  0  0  0  0  0  0  0  0  0  0  0
    7.3498   -1.5453    0.0000 C   0  0  0  0  0  0  0  0  0  0  0  0
    8.7300   -1.1755    0.0000 C   0  0  0  0  0  0  0  0  0  0  0  0
    7.9332   -0.9620    0.0000 C   0  0  0  0  0  0  0  0  0  0  0  0
  1  3  1  0  0  0  0
  3  2  1  0  0  0  0
  4  2  1  0  0  0  0
  5  7  1  0  0  0  0
  6  8  1  0  0  0  0
  7  4  1  0  0  0  0
  4  8  1  1  0  0  0
  9  1  1  0  0  0  0
  1  6  1  1  0  0  0
  5  1  1  0  0  0  0
  2 10  1  0  0  0  0
 10 11  1  0  0  0  0
 11 12  1  0  0  0  0
 11 13  2  0  0  0  0
 12 14  1  0  0  0  0
 12 15  1  0  0  0  0
 12 16  1  0  0  0  0
 18 17  1  0  0  0  0
 15 17  2  0  0  0  0
 19 18  2  0  0  0  0
 20 15  1  0  0  0  0
 21 19  1  0  0  0  0
 21 20  2  0  0  0  0
 16 22  1  0  0  0  0
 23 22  2  0  0  0  0
 24 16  2  0  0  0  0
 25 23  1  0  0  0  0
 26 24  1  0  0  0  0
 26 25  2  0  0  0  0
M  END
> <DRUGBANK_ID>
DB00771

> <DRUG_GROUPS>
approved

> <GENERIC_NAME>
Clidinium

> <SYNONYMS>
Bromure de Clidinium; Bromuro de clidinio; Clidinii Bromidum; Clidinium bromid

> <SALTS>
Clidinium Bromide

> <BRANDS>
Porsucon; Quarzan; Sedaspa

> <CHEMICAL_FORMULA>
C22H26NO3

> <MOLECULAR_WEIGHT>
352.4467

> <EXACT_MASS>
352.191268703

> <IUPAC_NAME>
(1s,4s)-3-[(2-hydroxy-2,2-diphenylacetyl)oxy]-1-methyl-1-azabicyclo[2.2.2]octan-1-ium

> <IUPAC_TRADITIONAL_NAME>
clidinium

> <INCHI_IDENTIFIER>
InChI=1S/C22H26NO3/c1-23-14-12-17(13-15-23)20(16-23)26-21(24)22(25,18-8-4-2-5-9-18)19-10-6-3-7-11-19/h2-11,17,20,25H,12-16H2,1H3/q+1/t17-,20?,23+

> <INCHI_KEY>
InChIKey=HOOSGZJRQIVJSZ-NNBUQUNQSA-N

> <SMILES>
C[N@@+]12CC[C@@H](CC1)C(C2)OC(=O)C(O)(C1=CC=CC=C1)C1=CC=CC=C1

> <JCHEM_ACCEPTOR_COUNT>
2

> <JCHEM_DONOR_COUNT>
1

> <JCHEM_ACIDIC_PKA>
11.05

> <JCHEM_BASIC_PKA>
-4.5

> <JCHEM_PHYSIOLOGICAL_CHARGE>
1

> <ALOGPS_LOGP>
-0.5

> <JCHEM_LOGP>
-1.1

> <ALOGPS_LOGS>
-6

> <JCHEM_POLARIZABILITY>
38.76

> <JCHEM_POLAR_SURFACE_AREA>
46.53

> <JCHEM_REFRACTIVITY>
112.14

> <JCHEM_ROTATABLE_BOND_COUNT>
5

> <ALOGPS_SOLUBILITY>
3.77e-04 g/l __ 

$$$$
