179
  Mrv0541 02231214302D          

 22 23  0  0  1  0            999 V2000
    7.0944   -3.5063    0.0000 O   0  0  0  0  0  0  0  0  0  0  0  0
    3.5220    3.5063    0.0000 O   0  0  0  0  0  0  0  0  0  0  0  0
    8.5234   -2.6813    0.0000 O   0  0  0  0  0  0  0  0  0  0  0  0
    2.0930    2.6813    0.0000 O   0  0  0  0  0  0  0  0  0  0  0  0
    5.6655   -0.2063    0.0000 C   0  0  2  0  0  0  0  0  0  0  0  0
    4.9509    0.2063    0.0000 C   0  0  1  0  0  0  0  0  0  0  0  0
    5.6655   -1.0313    0.0000 C   0  0  0  0  0  0  0  0  0  0  0  0
    4.9509    1.0313    0.0000 C   0  0  0  0  0  0  0  0  0  0  0  0
    6.3799    0.2063    0.0000 C   0  0  0  0  0  0  0  0  0  0  0  0
    4.2365   -0.2063    0.0000 C   0  0  0  0  0  0  0  0  0  0  0  0
    6.3799   -1.4438    0.0000 C   0  0  0  0  0  0  0  0  0  0  0  0
    4.2365    1.4438    0.0000 C   0  0  0  0  0  0  0  0  0  0  0  0
    6.3799   -2.2688    0.0000 C   0  0  0  0  0  0  0  0  0  0  0  0
    4.2365    2.2688    0.0000 C   0  0  0  0  0  0  0  0  0  0  0  0
    7.0944   -1.0313    0.0000 C   0  0  0  0  0  0  0  0  0  0  0  0
    3.5220    1.0313    0.0000 C   0  0  0  0  0  0  0  0  0  0  0  0
    7.0944   -2.6813    0.0000 C   0  0  0  0  0  0  0  0  0  0  0  0
    3.5220    2.6813    0.0000 C   0  0  0  0  0  0  0  0  0  0  0  0
    7.8089   -1.4438    0.0000 C   0  0  0  0  0  0  0  0  0  0  0  0
    2.8075    1.4438    0.0000 C   0  0  0  0  0  0  0  0  0  0  0  0
    7.8089   -2.2688    0.0000 C   0  0  0  0  0  0  0  0  0  0  0  0
    2.8075    2.2688    0.0000 C   0  0  0  0  0  0  0  0  0  0  0  0
  1 17  1  0  0  0  0
  2 18  1  0  0  0  0
  3 21  1  0  0  0  0
  4 22  1  0  0  0  0
  5  6  1  0  0  0  0
  5  7  1  0  0  0  0
  5  9  1  1  0  0  0
  6  8  1  0  0  0  0
  6 10  1  6  0  0  0
  7 11  1  0  0  0  0
  8 12  1  0  0  0  0
 11 13  2  0  0  0  0
 11 15  1  0  0  0  0
 12 14  2  0  0  0  0
 12 16  1  0  0  0  0
 13 17  1  0  0  0  0
 14 18  1  0  0  0  0
 15 19  2  0  0  0  0
 16 20  2  0  0  0  0
 17 21  2  0  0  0  0
 18 22  2  0  0  0  0
 19 21  1  0  0  0  0
 20 22  1  0  0  0  0
M  END
> <DRUGBANK_ID>
DB00179

> <DRUG_GROUPS>
approved

> <GENERIC_NAME>
Masoprocol

> <SYNONYMS>
Masoprocolum; NDGA; Nordihydroguaiaretic acid

> <BRANDS>
Actinex

> <CHEMICAL_FORMULA>
C18H22O4

> <MOLECULAR_WEIGHT>
302.3649

> <EXACT_MASS>
302.151809192

> <IUPAC_NAME>
4-[(2S,3R)-3-[(3,4-dihydroxyphenyl)methyl]-2-methylbutyl]benzene-1,2-diol

> <IUPAC_TRADITIONAL_NAME>
masoprocol

> <INCHI_IDENTIFIER>
InChI=1S/C18H22O4/c1-11(7-13-3-5-15(19)17(21)9-13)12(2)8-14-4-6-16(20)18(22)10-14/h3-6,9-12,19-22H,7-8H2,1-2H3/t11-,12+

> <INCHI_KEY>
InChIKey=HCZKYJDFEPMADG-TXEJJXNPSA-N

> <SMILES>
C[C@@H](CC1=CC(O)=C(O)C=C1)[C@H](C)CC1=CC(O)=C(O)C=C1

> <JCHEM_ACCEPTOR_COUNT>
4

> <JCHEM_DONOR_COUNT>
4

> <JCHEM_ACIDIC_PKA>
9.21

> <JCHEM_BASIC_PKA>
-6.3

> <JCHEM_PHYSIOLOGICAL_CHARGE>
0

> <ALOGPS_LOGP>
3.44

> <JCHEM_LOGP>
4.76

> <ALOGPS_LOGS>
-4.3

> <JCHEM_POLARIZABILITY>
33.63

> <JCHEM_POLAR_SURFACE_AREA>
80.92

> <JCHEM_REFRACTIVITY>
86.62

> <JCHEM_ROTATABLE_BOND_COUNT>
5

> <ALOGPS_SOLUBILITY>
1.36e-02 g/l __ 

$$$$
