
  Mrv0541 04191212112D          

 21 23  0  0  1  0            999 V2000
    0.0000   -0.8250    0.0000 C   0  0  0  0  0  0  0  0  0  0  0  0
    0.7145   -0.4125    0.0000 C   0  0  0  0  0  0  0  0  0  0  0  0
    0.0000    0.8250    0.0000 C   0  0  0  0  0  0  0  0  0  0  0  0
   -0.7145   -0.4125    0.0000 C   0  0  0  0  0  0  0  0  0  0  0  0
   -0.7145    0.4125    0.0000 C   0  0  0  0  0  0  0  0  0  0  0  0
    0.7145    0.4125    0.0000 C   0  0  0  0  0  0  0  0  0  0  0  0
   -1.4289   -0.8250    0.0000 C   0  0  0  0  0  0  0  0  0  0  0  0
    1.9840    0.0000    0.0000 C   0  0  0  0  0  0  0  0  0  0  0  0
    1.4991   -0.6674    0.0000 C   0  0  0  0  0  0  0  0  0  0  0  0
    1.7540   -1.4521    0.0000 C   0  0  0  0  0  0  0  0  0  0  0  0
    2.8159   -2.4081    0.0000 N   0  0  0  0  0  0  0  0  0  0  0  0
    2.2639   -3.0212    0.0000 C   0  0  0  0  0  0  0  0  0  0  0  0
    3.6229   -2.5796    0.0000 C   0  0  0  0  0  0  0  0  0  0  0  0
    2.5610   -1.6235    0.0000 C   0  0  0  0  0  0  0  0  0  0  0  0
    1.4991    0.6674    0.0000 N   0  0  0  0  0  0  0  0  0  0  0  0
   -2.1434   -0.4125    0.0000 C   0  0  2  0  0  0  0  0  0  0  0  0
   -2.8108   -0.8974    0.0000 N   0  0  0  0  0  0  0  0  0  0  0  0
   -3.4783   -0.4126    0.0000 C   0  0  0  0  0  0  0  0  0  0  0  0
   -3.2233    0.3720    0.0000 O   0  0  0  0  0  0  0  0  0  0  0  0
   -4.2629   -0.6675    0.0000 O   0  0  0  0  0  0  0  0  0  0  0  0
   -2.3983    0.3720    0.0000 C   0  0  0  0  0  0  0  0  0  0  0  0
  2  1  2  0  0  0  0
  2  9  1  0  0  0  0
  1  4  1  0  0  0  0
  4  7  1  0  0  0  0
  4  5  2  0  0  0  0
  3  5  1  0  0  0  0
  6  3  2  0  0  0  0
  2  6  1  0  0  0  0
  6 15  1  0  0  0  0
 16  7  1  6  0  0  0
  9  8  2  0  0  0  0
 15  8  1  0  0  0  0
  9 10  1  0  0  0  0
 10 14  1  0  0  0  0
 14 11  1  0  0  0  0
 11 12  1  0  0  0  0
 11 13  1  0  0  0  0
 16 17  1  0  0  0  0
 16 21  1  0  0  0  0
 17 18  1  0  0  0  0
 18 20  2  0  0  0  0
 18 19  1  0  0  0  0
 21 19  1  0  0  0  0
M  END
> <DRUGBANK_ID>
DB00315

> <DRUG_GROUPS>
approved; investigational

> <GENERIC_NAME>
Zolmitriptan

> <SYNONYMS>


> <BRANDS>
Zomig

> <CHEMICAL_FORMULA>
C16H21N3O2

> <MOLECULAR_WEIGHT>
287.3568

> <EXACT_MASS>
287.163376931

> <IUPAC_NAME>
(4S)-4-({3-[2-(dimethylamino)ethyl]-1H-indol-5-yl}methyl)-1,3-oxazolidin-2-one

> <IUPAC_TRADITIONAL_NAME>
zolmitriptan

> <INCHI_IDENTIFIER>
InChI=1S/C16H21N3O2/c1-19(2)6-5-12-9-17-15-4-3-11(8-14(12)15)7-13-10-21-16(20)18-13/h3-4,8-9,13,17H,5-7,10H2,1-2H3,(H,18,20)/t13-/m0/s1

> <INCHI_KEY>
InChIKey=ULSDMUVEXKOYBU-ZDUSSCGKSA-N

> <SMILES>
CN(C)CCC1=CNC2=CC=C(C[C@H]3COC(=O)N3)C=C12

> <JCHEM_ACCEPTOR_COUNT>
2

> <JCHEM_DONOR_COUNT>
2

> <JCHEM_ACIDIC_PKA>
13

> <JCHEM_BASIC_PKA>
9.55

> <JCHEM_PHYSIOLOGICAL_CHARGE>
1

> <ALOGPS_LOGP>
2.25

> <JCHEM_LOGP>
2.04

> <ALOGPS_LOGS>
-3.2

> <JCHEM_POLARIZABILITY>
31.65

> <JCHEM_POLAR_SURFACE_AREA>
57.36

> <JCHEM_REFRACTIVITY>
82.44

> <JCHEM_ROTATABLE_BOND_COUNT>
5

> <ALOGPS_SOLUBILITY>
1.90e-01 g/l __ 

$$$$
