
  Mrv0541 04191212152D          

 46 46  0  0  0  0            999 V2000
    7.7994   -6.0504    0.0000 C   0  0  0  0  0  0  0  0  0  0  0  0
    7.7994   -5.2254    0.0000 O   0  0  0  0  0  0  0  0  0  0  0  0
    7.0849   -6.4629    0.0000 C   0  0  1  0  0  0  0  0  0  0  0  0
    7.0849   -7.2879    0.0000 C   0  0  0  0  0  0  0  0  0  0  0  0
    6.3704   -6.0504    0.0000 N   0  0  0  0  0  0  0  0  0  0  0  0
    9.0145   -6.0800    0.0000 O   0  0  0  0  0  0  0  0  0  0  0  0
    5.5454   -6.0504    0.0000 H   0  0  0  0  0  0  0  0  0  0  0  0
    6.3704   -7.7004    0.0000 C   0  0  0  0  0  0  0  0  0  0  0  0
    6.3704   -8.5254    0.0000 C   0  0  0  0  0  0  0  0  0  0  0  0
    5.6559   -8.9379    0.0000 C   0  0  0  0  0  0  0  0  0  0  0  0
    5.6559   -9.7629    0.0000 N   0  0  0  0  0  0  0  0  0  0  0  0
    6.3704  -10.1754    0.0000 C   0  0  0  0  0  0  0  0  0  0  0  0
    6.3704  -11.0004    0.0000 O   0  0  0  0  0  0  0  0  0  0  0  0
    7.0848   -9.7629    0.0000 C   0  0  0  0  0  0  0  0  0  0  0  0
    7.0848   -8.9379    0.0000 N   0  0  0  0  0  0  0  0  0  0  0  0
    7.7993  -10.1754    0.0000 C   0  0  1  0  0  0  0  0  0  0  0  0
    7.7993   -8.5254    0.0000 C   0  0  0  0  0  0  0  0  0  0  0  0
    7.7993   -7.7004    0.0000 O   0  0  0  0  0  0  0  0  0  0  0  0
    8.5138   -8.9379    0.0000 C   0  0  0  0  0  0  0  0  0  0  0  0
    9.2282   -8.5254    0.0000 C   0  0  0  0  0  0  0  0  0  0  0  0
    9.9426   -7.2879    0.0000 C   0  0  0  0  0  0  0  0  0  0  0  0
    9.2282   -7.7004    0.0000 C   0  0  0  0  0  0  0  0  0  0  0  0
    9.9426   -8.9379    0.0000 C   0  0  0  0  0  0  0  0  0  0  0  0
   10.6572   -8.5254    0.0000 C   0  0  0  0  0  0  0  0  0  0  0  0
   10.6572   -7.7004    0.0000 C   0  0  0  0  0  0  0  0  0  0  0  0
    8.5828   -9.9171    0.0000 S   0  0  0  0  0  0  0  0  0  0  0  0
    7.8028  -11.0004    0.0000 N   0  0  0  0  0  0  0  0  0  0  0  0
    8.5885  -11.2520    0.0000 C   0  0  2  0  0  0  0  0  0  0  0  0
    9.0706  -10.5825    0.0000 C   0  0  0  0  0  0  0  0  0  0  0  0
    7.7993   -9.3504    0.0000 H   0  0  0  0  0  0  0  0  0  0  0  0
    8.8468  -12.0356    0.0000 C   0  0  0  0  0  0  0  0  0  0  0  0
    9.6544  -12.2036    0.0000 O   0  0  0  0  0  0  0  0  0  0  0  0
    8.2974  -12.6510    0.0000 O   0  0  0  0  0  0  0  0  0  0  0  0
    9.7850  -10.1700    0.0000 C   0  0  0  0  0  0  0  0  0  0  0  0
    9.7850  -10.9950    0.0000 C   0  0  0  0  0  0  0  0  0  0  0  0
   14.2179   -7.2109    0.0000 C   0  0  0  0  0  0  0  0  0  0  0  0
   14.2179   -6.3859    0.0000 O   0  0  0  0  0  0  0  0  0  0  0  0
   13.5034   -7.6234    0.0000 C   0  0  1  0  0  0  0  0  0  0  0  0
   13.5034   -8.4484    0.0000 C   0  0  0  0  0  0  0  0  0  0  0  0
   12.7889   -7.2109    0.0000 N   0  0  0  0  0  0  0  0  0  0  0  0
   15.4330   -7.2405    0.0000 O   0  0  0  0  0  0  0  0  0  0  0  0
   11.9639   -7.2109    0.0000 H   0  0  0  0  0  0  0  0  0  0  0  0
   12.7889   -8.8609    0.0000 C   0  0  0  0  0  0  0  0  0  0  0  0
   12.7889   -9.6859    0.0000 C   0  0  0  0  0  0  0  0  0  0  0  0
   12.0744  -10.0984    0.0000 C   0  0  0  0  0  0  0  0  0  0  0  0
   12.0744  -10.9234    0.0000 N   0  0  0  0  0  0  0  0  0  0  0  0
  1  2  2  0  0  0  0
  1  3  1  0  0  0  0
  3  4  1  0  0  0  0
  3  5  1  1  0  0  0
  6  1  1  0  0  0  0
  5  7  1  0  0  0  0
  4  8  1  0  0  0  0
  8  9  1  0  0  0  0
  9 10  1  0  0  0  0
 10 11  1  0  0  0  0
 11 12  1  0  0  0  0
 12 13  2  0  0  0  0
 12 14  1  0  0  0  0
 14 15  1  0  0  0  0
 14 16  1  0  0  0  0
 15 17  1  0  0  0  0
 17 18  2  0  0  0  0
 17 19  1  0  0  0  0
 19 20  1  0  0  0  0
 22 20  2  0  0  0  0
 20 23  1  0  0  0  0
 21 22  1  0  0  0  0
 23 24  2  0  0  0  0
 24 25  1  0  0  0  0
 21 25  2  0  0  0  0
 26 16  1  0  0  0  0
 16 27  1  0  0  0  0
 27 28  1  0  0  0  0
 28 29  1  0  0  0  0
 26 29  1  0  0  0  0
 16 30  1  6  0  0  0
 28 31  1  6  0  0  0
 31 32  1  0  0  0  0
 31 33  2  0  0  0  0
 29 34  1  0  0  0  0
 29 35  1  0  0  0  0
 36 37  2  0  0  0  0
 36 38  1  0  0  0  0
 38 39  1  0  0  0  0
 38 40  1  1  0  0  0
 41 36  1  0  0  0  0
 40 42  1  0  0  0  0
 39 43  1  0  0  0  0
 43 44  1  0  0  0  0
 44 45  1  0  0  0  0
 45 46  1  0  0  0  0
M  END
> <DRUGBANK_ID>
DB00895

> <DRUG_GROUPS>
approved

> <GENERIC_NAME>
Benzylpenicilloyl Polylysine

> <SYNONYMS>
benzylpenicilloyl G polylysine

> <BRANDS>
Pre-pen

> <CHEMICAL_FORMULA>
C28H46N6O8S

> <MOLECULAR_WEIGHT>
626.765

> <EXACT_MASS>
626.309783168

> <INCHI_IDENTIFIER>
InChI=1S/C22H32N4O6S.C6H14N2O2/c1-22(2)17(21(31)32)26-19(33-22)16(25-15(27)12-13-8-4-3-5-9-13)18(28)24-11-7-6-10-14(23)20(29)30;7-4-2-1-3-5(8)6(9)10/h3-5,8-9,14,16-17,19,26H,6-7,10-12,23H2,1-2H3,(H,24,28)(H,25,27)(H,29,30)(H,31,32);5H,1-4,7-8H2,(H,9,10)/t14-,16?,17+,19-;5-/m11/s1

> <INCHI_KEY>
InChIKey=IMPVZRLKKKXMKQ-SGDOCVTFSA-N

> <JCHEM_ACCEPTOR_COUNT>
8

> <JCHEM_DONOR_COUNT>
6

> <JCHEM_LOGP>
-3.8

> <JCHEM_POLARIZABILITY>
50.05

> <JCHEM_POLAR_SURFACE_AREA>
170.85

> <JCHEM_REFRACTIVITY>
122.22

> <JCHEM_ROTATABLE_BOND_COUNT>
17 __ 

$$$$
