635
  Mrv0541 02231214502D          

 29 32  0  0  1  0            999 V2000
    6.6263    1.5366    0.0000 O   0  0  0  0  0  0  0  0  0  0  0  0
    3.9559    0.9126    0.0000 O   0  0  0  0  0  0  0  0  0  0  0  0
    7.4634    2.0559    0.0000 O   0  0  0  0  0  0  0  0  0  0  0  0
    8.9696    1.3822    0.0000 O   0  0  0  0  0  0  0  0  0  0  0  0
    1.6500   -2.0181    0.0000 O   0  0  0  0  0  0  0  0  0  0  0  0
    6.0993    0.5001    0.0000 C   0  0  1  0  0  0  0  0  0  0  0  0
    6.0993   -0.3249    0.0000 C   0  0  2  0  0  0  0  0  0  0  0  0
    5.3849   -0.7374    0.0000 C   0  0  1  0  0  0  0  0  0  0  0  0
    4.6703   -0.3249    0.0000 C   0  0  1  0  0  0  0  0  0  0  0  0
    6.8799    0.7515    0.0000 C   0  0  1  0  0  0  0  0  0  0  0  0
    6.8799   -0.5763    0.0000 C   0  0  0  0  0  0  0  0  0  0  0  0
    5.3849    0.9126    0.0000 C   0  0  0  0  0  0  0  0  0  0  0  0
    7.3614    0.0876    0.0000 C   0  0  0  0  0  0  0  0  0  0  0  0
    3.9196   -0.7431    0.0000 C   0  0  1  0  0  0  0  0  0  0  0  0
    5.3981   -1.5966    0.0000 C   0  0  0  0  0  0  0  0  0  0  0  0
    4.6703    0.5001    0.0000 C   0  0  0  0  0  0  0  0  0  0  0  0
    6.0993    1.3251    0.0000 C   0  0  0  0  0  0  0  0  0  0  0  0
    4.6572   -2.0321    0.0000 C   0  0  0  0  0  0  0  0  0  0  0  0
    3.9130   -1.6024    0.0000 C   0  0  0  0  0  0  0  0  0  0  0  0
    7.5482    1.2353    0.0000 C   0  0  0  0  0  0  0  0  0  0  0  0
    3.9259    0.0819    0.0000 C   0  0  0  0  0  0  0  0  0  0  0  0
    3.1550   -0.2777    0.0000 C   0  0  0  0  0  0  0  0  0  0  0  0
    3.1413   -2.0559    0.0000 C   0  0  0  0  0  0  0  0  0  0  0  0
    8.3013    0.8984    0.0000 C   0  0  0  0  0  0  0  0  0  0  0  0
    2.3729   -0.7132    0.0000 C   0  0  0  0  0  0  0  0  0  0  0  0
    2.3660   -1.6083    0.0000 C   0  0  0  0  0  0  0  0  0  0  0  0
    6.1691   -0.9812    0.0000 H   0  0  0  0  0  0  0  0  0  0  0  0
    5.9589   -1.0630    0.0000 H   0  0  0  0  0  0  0  0  0  0  0  0
    5.2420    0.0051    0.0000 H   0  0  0  0  0  0  0  0  0  0  0  0
 10  1  1  6  0  0  0
  2 16  2  0  0  0  0
  3 20  2  0  0  0  0
  4 24  1  0  0  0  0
  5 26  2  0  0  0  0
  6  7  1  0  0  0  0
  6 10  1  0  0  0  0
  6 12  1  0  0  0  0
  6 17  1  1  0  0  0
  7  8  1  0  0  0  0
  7 11  1  0  0  0  0
  7 27  1  6  0  0  0
  8  9  1  0  0  0  0
  8 15  1  0  0  0  0
  8 28  1  1  0  0  0
  9 14  1  0  0  0  0
  9 16  1  0  0  0  0
  9 29  1  6  0  0  0
 10 13  1  0  0  0  0
 10 20  1  0  0  0  0
 11 13  1  0  0  0  0
 12 16  1  0  0  0  0
 14 19  1  0  0  0  0
 14 21  1  1  0  0  0
 14 22  1  0  0  0  0
 15 18  1  0  0  0  0
 18 19  1  0  0  0  0
 19 23  2  0  0  0  0
 20 24  1  0  0  0  0
 22 25  2  0  0  0  0
 23 26  1  0  0  0  0
 25 26  1  0  0  0  0
M  END
> <DRUGBANK_ID>
DB00635

> <DRUG_GROUPS>
approved

> <GENERIC_NAME>
Prednisone

> <SYNONYMS>
1,2-Dehydrocortisone; Dehydrocortisone; Prednisona; Prednisonum

> <BRANDS>
Delta-Cortef; Meticorten; Orasone; Rayos 

> <CHEMICAL_FORMULA>
C21H26O5

> <MOLECULAR_WEIGHT>
358.4281

> <EXACT_MASS>
358.178023942

> <IUPAC_NAME>
(1S,2R,10S,11S,14R,15S)-14-hydroxy-14-(2-hydroxyacetyl)-2,15-dimethyltetracyclo[8.7.0.0^{2,7}.0^{11,15}]heptadeca-3,6-diene-5,17-dione

> <IUPAC_TRADITIONAL_NAME>
prednisone

> <INCHI_IDENTIFIER>
InChI=1S/C21H26O5/c1-19-7-5-13(23)9-12(19)3-4-14-15-6-8-21(26,17(25)11-22)20(15,2)10-16(24)18(14)19/h5,7,9,14-15,18,22,26H,3-4,6,8,10-11H2,1-2H3/t14-,15-,18+,19-,20-,21-/m0/s1

> <INCHI_KEY>
InChIKey=XOFYZVNMUHMLCC-ZPOLXVRWSA-N

> <SMILES>
[H][C@@]12CC[C@](O)(C(=O)CO)[C@@]1(C)CC(=O)[C@@]1([H])[C@@]2([H])CCC2=CC(=O)C=C[C@]12C

> <JCHEM_ACCEPTOR_COUNT>
5

> <JCHEM_DONOR_COUNT>
2

> <JCHEM_ACIDIC_PKA>
12.58

> <JCHEM_BASIC_PKA>
-3.3

> <JCHEM_PHYSIOLOGICAL_CHARGE>
0

> <ALOGPS_LOGP>
2.07

> <JCHEM_LOGP>
1.66

> <ALOGPS_LOGS>
-3.5

> <JCHEM_POLARIZABILITY>
38.17

> <JCHEM_POLAR_SURFACE_AREA>
91.67

> <JCHEM_REFRACTIVITY>
97.57

> <JCHEM_ROTATABLE_BOND_COUNT>
2

> <ALOGPS_SOLUBILITY>
1.11e-01 g/l __ 

$$$$
