848
  Mrv0541 02231215032D          

 14 16  0  0  1  0            999 V2000
    6.1753   -0.6639    0.0000 S   0  0  0  0  0  0  0  0  0  0  0  0
    5.3946    0.4125    0.0000 N   0  0  0  0  0  0  0  0  0  0  0  0
    4.6100   -0.6674    0.0000 N   0  0  0  0  0  0  0  0  0  0  0  0
    4.6100    0.6674    0.0000 C   0  0  0  0  0  0  0  0  0  0  0  0
    4.1251    0.0000    0.0000 C   0  0  2  0  0  0  0  0  0  0  0  0
    6.1753    0.6639    0.0000 C   0  0  0  0  0  0  0  0  0  0  0  0
    5.3946   -0.4125    0.0000 C   0  0  0  0  0  0  0  0  0  0  0  0
    6.6568    0.0000    0.0000 C   0  0  0  0  0  0  0  0  0  0  0  0
    3.3001    0.0000    0.0000 C   0  0  0  0  0  0  0  0  0  0  0  0
    2.8876   -0.7145    0.0000 C   0  0  0  0  0  0  0  0  0  0  0  0
    2.8876    0.7145    0.0000 C   0  0  0  0  0  0  0  0  0  0  0  0
    2.0625   -0.7145    0.0000 C   0  0  0  0  0  0  0  0  0  0  0  0
    2.0625    0.7145    0.0000 C   0  0  0  0  0  0  0  0  0  0  0  0
    1.6500    0.0000    0.0000 C   0  0  0  0  0  0  0  0  0  0  0  0
  1  7  1  0  0  0  0
  1  8  1  0  0  0  0
  2  4  1  0  0  0  0
  2  6  1  0  0  0  0
  2  7  1  0  0  0  0
  3  5  1  0  0  0  0
  3  7  2  0  0  0  0
  4  5  1  0  0  0  0
  5  9  1  1  0  0  0
  6  8  1  0  0  0  0
  9 10  2  0  0  0  0
  9 11  1  0  0  0  0
 10 12  1  0  0  0  0
 11 13  2  0  0  0  0
 12 14  2  0  0  0  0
 13 14  1  0  0  0  0
M  END
> <DRUGBANK_ID>
DB00848

> <DRUG_GROUPS>
withdrawn

> <GENERIC_NAME>
Levamisole

> <SYNONYMS>
Levamisol; Levamisolum

> <SALTS>
Levamisole hydrochloride

> <BRANDS>
Ergamisol; Ketrax

> <CHEMICAL_FORMULA>
C11H12N2S

> <MOLECULAR_WEIGHT>
204.291

> <EXACT_MASS>
204.072119084

> <IUPAC_NAME>
(6S)-6-phenyl-2H,3H,5H,6H-imidazo[2,1-b][1,3]thiazole

> <IUPAC_TRADITIONAL_NAME>
levamisole

> <INCHI_IDENTIFIER>
InChI=1S/C11H12N2S/c1-2-4-9(5-3-1)10-8-13-6-7-14-11(13)12-10/h1-5,10H,6-8H2/t10-/m1/s1

> <INCHI_KEY>
InChIKey=HLFSDGLLUJUHTE-SNVBAGLBSA-N

> <SMILES>
C1CN2C[C@@H](N=C2S1)C1=CC=CC=C1

> <JCHEM_ACCEPTOR_COUNT>
2

> <JCHEM_DONOR_COUNT>
0

> <JCHEM_BASIC_PKA>
6.98

> <JCHEM_PHYSIOLOGICAL_CHARGE>
0

> <ALOGPS_LOGP>
2.2

> <JCHEM_LOGP>
2.36

> <ALOGPS_LOGS>
-2.1

> <JCHEM_POLARIZABILITY>
22.35

> <JCHEM_POLAR_SURFACE_AREA>
15.6

> <JCHEM_REFRACTIVITY>
60.08

> <JCHEM_ROTATABLE_BOND_COUNT>
1

> <ALOGPS_SOLUBILITY>
1.44e+00 g/l __ 

$$$$
