369
  Mrv0541 02231214382D          

 18 18  0  0  1  0            999 V2000
    4.5080   -2.4751    0.0000 P   0  0  0  0  0  0  0  0  0  0  0  0
    3.7935   -1.2375    0.0000 O   0  0  0  0  0  0  0  0  0  0  0  0
    5.2224   -0.4125    0.0000 O   0  0  0  0  0  0  0  0  0  0  0  0
    4.5080   -3.3001    0.0000 O   0  0  0  0  0  0  0  0  0  0  0  0
    5.3330   -2.4751    0.0000 O   0  0  0  0  0  0  0  0  0  0  0  0
    3.6830   -2.4751    0.0000 O   0  0  0  0  0  0  0  0  0  0  0  0
    1.6500    0.8250    0.0000 O   0  0  0  0  0  0  0  0  0  0  0  0
    3.0791    0.8250    0.0000 N   0  0  0  0  0  0  0  0  0  0  0  0
    2.3645    2.0625    0.0000 N   0  0  0  0  0  0  0  0  0  0  0  0
    3.0791    3.3001    0.0000 N   0  0  0  0  0  0  0  0  0  0  0  0
    3.7935   -0.4125    0.0000 C   0  0  1  0  0  0  0  0  0  0  0  0
    3.0791    0.0000    0.0000 C   0  0  0  0  0  0  0  0  0  0  0  0
    4.5080    0.0000    0.0000 C   0  0  0  0  0  0  0  0  0  0  0  0
    4.5080   -1.6500    0.0000 C   0  0  0  0  0  0  0  0  0  0  0  0
    3.7935    1.2375    0.0000 C   0  0  0  0  0  0  0  0  0  0  0  0
    2.3645    1.2375    0.0000 C   0  0  0  0  0  0  0  0  0  0  0  0
    3.7935    2.0625    0.0000 C   0  0  0  0  0  0  0  0  0  0  0  0
    3.0791    2.4751    0.0000 C   0  0  0  0  0  0  0  0  0  0  0  0
  1  4  1  0  0  0  0
  1  5  1  0  0  0  0
  1  6  2  0  0  0  0
  1 14  1  0  0  0  0
 11  2  1  1  0  0  0
  2 14  1  0  0  0  0
  3 13  1  0  0  0  0
  7 16  2  0  0  0  0
  8 12  1  0  0  0  0
  8 15  1  0  0  0  0
  8 16  1  0  0  0  0
  9 16  1  0  0  0  0
  9 18  2  0  0  0  0
 10 18  1  0  0  0  0
 11 12  1  0  0  0  0
 11 13  1  0  0  0  0
 15 17  2  0  0  0  0
 17 18  1  0  0  0  0
M  END
> <DRUGBANK_ID>
DB00369

> <DRUG_GROUPS>
approved

> <GENERIC_NAME>
Cidofovir

> <SYNONYMS>
CDV; Cidofovir Anhydrous

> <BRANDS>


> <CHEMICAL_FORMULA>
C8H14N3O6P

> <MOLECULAR_WEIGHT>
279.187

> <EXACT_MASS>
279.062021707

> <IUPAC_NAME>
({[(2S)-1-(4-amino-2-oxo-1,2-dihydropyrimidin-1-yl)-3-hydroxypropan-2-yl]oxy}methyl)phosphonic acid

> <IUPAC_TRADITIONAL_NAME>
{[(2S)-1-(4-amino-2-oxopyrimidin-1-yl)-3-hydroxypropan-2-yl]oxy}methylphosphonic acid

> <INCHI_IDENTIFIER>
InChI=1S/C8H14N3O6P/c9-7-1-2-11(8(13)10-7)3-6(4-12)17-5-18(14,15)16/h1-2,6,12H,3-5H2,(H2,9,10,13)(H2,14,15,16)/t6-/m0/s1

> <INCHI_KEY>
InChIKey=VWFCHDSQECPREK-LURJTMIESA-N

> <SMILES>
NC1=NC(=O)N(C[C@@H](CO)OCP(O)(O)=O)C=C1

> <JCHEM_ACCEPTOR_COUNT>
8

> <JCHEM_DONOR_COUNT>
4

> <JCHEM_ACIDIC_PKA>
1.19

> <JCHEM_BASIC_PKA>
2.15

> <JCHEM_PHYSIOLOGICAL_CHARGE>
-1

> <ALOGPS_LOGP>
-2.1

> <JCHEM_LOGP>
-3.4

> <ALOGPS_LOGS>
-1.4

> <JCHEM_POLARIZABILITY>
24.44

> <JCHEM_POLAR_SURFACE_AREA>
145.68

> <JCHEM_REFRACTIVITY>
60.43

> <JCHEM_ROTATABLE_BOND_COUNT>
6

> <ALOGPS_SOLUBILITY>
1.15e+01 g/l __ 

$$$$
