
  Mrv0541 04191212152D          

 30 33  0  0  1  0            999 V2000
    5.7755   -5.7759    0.0000 C    0  0  0  0  0  0  0  0  0  0  0  0
    5.7755   -6.5707    0.0000 C    0  0  0  0  0  0  0  0  0  0  0  0
    6.4868   -6.9891    0.0000 C    0  0  0  0  0  0  0  0  0  0  0  0
    7.1981   -6.5707    0.0000 C    0  0  0  0  0  0  0  0  0  0  0  0
    7.1981   -5.7759    0.0000 C    0  0  2  0  0  0  0  0  0  0  0  0
    6.4868   -5.3575    0.0000 C    0  0  0  0  0  0  0  0  0  0  0  0
    7.9092   -6.9891    0.0000 C    0  0  2  0  0  0  0  0  0  0  0  0
    8.5786   -6.5707    0.0000 C    0  0  0  0  0  0  0  0  0  0  0  0
    8.5786   -5.7759    0.0000 C    0  0  2  0  0  0  0  0  0  0  0  0
    7.9092   -5.3575    0.0000 C    0  0  2  0  0  0  0  0  0  0  0  0
    9.2898   -5.3575    0.0000 C    0  0  1  0  0  0  0  0  0  0  0  0
    9.2898   -4.5626    0.0000 C    0  0  1  0  0  0  0  0  0  0  0  0
    8.5786   -4.1443    0.0000 C    0  0  0  0  0  0  0  0  0  0  0  0
    7.9092   -4.5626    0.0000 C    0  0  2  0  0  0  0  0  0  0  0  0
    7.9092   -7.8258    0.0000 F    0  0  0  0  0  0  0  0  0  0  0  0
    7.9092   -6.1942    0.0000 Cl   0  0  0  0  0  0  0  0  0  0  0  0
    9.2898   -6.1942    0.0000 H    0  0  0  0  0  0  0  0  0  0  0  0
    9.2480   -3.7260    0.0000 C    0  0  0  0  0  0  0  0  0  0  0  0
    7.1981   -4.9810    0.0000 C    0  0  0  0  0  0  0  0  0  0  0  0
    5.0644   -6.9891    0.0000 O    0  0  0  0  0  0  0  0  0  0  0  0
    7.1981   -4.1443    0.0000 O    0  0  0  0  0  0  0  0  0  0  0  0
    8.5786   -4.9810    0.0000 H    0  0  0  0  0  0  0  0  0  0  0  0
   10.0458   -4.3170    0.0000 C    0  0  2  0  0  0  0  0  0  0  0  0
   10.5129   -4.9601    0.0000 C    0  0  1  0  0  0  0  0  0  0  0  0
   10.0459   -5.6032    0.0000 C    0  0  0  0  0  0  0  0  0  0  0  0
   10.3008   -3.5323    0.0000 C    0  0  0  0  0  0  0  0  0  0  0  0
   11.1079   -3.3607    0.0000 C    0  0  0  0  0  0  0  0  0  0  0  0
    9.7486   -2.9191    0.0000 O    0  0  0  0  0  0  0  0  0  0  0  0
   11.6598   -3.9739    0.0000 O    0  0  0  0  0  0  0  0  0  0  0  0
   11.3381   -4.9600    0.0000 C    0  0  0  0  0  0  0  0  0  0  0  0
  1  2  1  0  0  0  0
  2  3  1  0  0  0  0
  3  4  2  0  0  0  0
  4  5  1  0  0  0  0
  5  6  1  0  0  0  0
  1  6  2  0  0  0  0
  4  7  1  0  0  0  0
  7  8  1  0  0  0  0
  8  9  1  0  0  0  0
  9 10  1  0  0  0  0
  5 10  1  0  0  0  0
  9 11  1  0  0  0  0
 12 13  1  0  0  0  0
 13 14  1  0  0  0  0
 10 14  1  0  0  0  0
  7 15  1  6  0  0  0
 10 16  1  6  0  0  0
 11 17  1  6  0  0  0
 12 18  1  1  0  0  0
  5 19  1  1  0  0  0
  2 20  2  0  0  0  0
 14 21  1  1  0  0  0
  9 22  1  1  0  0  0
 23 12  1  0  0  0  0
 11 12  1  0  0  0  0
 24 23  1  0  0  0  0
 25 11  1  0  0  0  0
 25 24  1  0  0  0  0
 23 26  1  1  0  0  0
 26 27  1  0  0  0  0
 26 28  2  0  0  0  0
 27 29  1  0  0  0  0
 24 30  1  6  0  0  0
M  END
> <DRUGBANK_ID>
DB00838

> <DRUG_GROUPS>
approved

> <GENERIC_NAME>
Clocortolone

> <SYNONYMS>
Clocortolon; Clocortolona; Clocortolone; Clocortolonum

> <SALTS>
Clocortolone trimethylacetate

> <BRANDS>
Cloderm

> <CHEMICAL_FORMULA>
C22H28ClFO4

> <MOLECULAR_WEIGHT>
410.907

> <EXACT_MASS>
410.166015296

> <IUPAC_NAME>
(1R,2S,8S,10S,11S,13R,14S,15S,17S)-1-chloro-8-fluoro-17-hydroxy-14-(2-hydroxyacetyl)-2,13,15-trimethyltetracyclo[8.7.0.0^{2,7}.0^{11,15}]heptadeca-3,6-dien-5-one

> <IUPAC_TRADITIONAL_NAME>
clocortolone

> <INCHI_IDENTIFIER>
InChI=1S/C22H28ClFO4/c1-11-6-13-14-8-16(24)15-7-12(26)4-5-21(15,3)22(14,23)18(28)9-20(13,2)19(11)17(27)10-25/h4-5,7,11,13-14,16,18-19,25,28H,6,8-10H2,1-3H3/t11-,13+,14+,16+,18+,19-,20+,21+,22+/m1/s1

> <INCHI_KEY>
InChIKey=YMTMADLUXIRMGX-RFPWEZLHSA-N

> <SMILES>
[H][C@@]12C[C@@H](C)[C@H](C(=O)CO)[C@@]1(C)C[C@H](O)[C@@]1(Cl)[C@@]2([H])C[C@H](F)C2=CC(=O)C=C[C@]12C

> <JCHEM_ACCEPTOR_COUNT>
4

> <JCHEM_DONOR_COUNT>
2

> <JCHEM_ACIDIC_PKA>
13.53

> <JCHEM_BASIC_PKA>
-3.3

> <JCHEM_PHYSIOLOGICAL_CHARGE>
0

> <ALOGPS_LOGP>
2.73

> <JCHEM_LOGP>
2.47

> <ALOGPS_LOGS>
-4.4

> <JCHEM_POLARIZABILITY>
41.8

> <JCHEM_POLAR_SURFACE_AREA>
74.6

> <JCHEM_REFRACTIVITY>
105.74

> <JCHEM_ROTATABLE_BOND_COUNT>
2

> <ALOGPS_SOLUBILITY>
1.50e-02 g/l __ 

$$$$
