71388
  Mrv0541 02231215062D          

 69 60  0  0  0  0            999 V2000
   -0.2062   -1.0018    0.0000 C    0  0  0  0  0  0  0  0  0  0  0  0
    0.5082   -0.5893    0.0000 C    0  0  0  0  0  0  0  0  0  0  0  0
    1.0916   -1.1726    0.0000 C    0  0  0  0  0  0  0  0  0  0  0  0
    1.8061   -0.7601    0.0000 C    0  0  0  0  0  0  0  0  0  0  0  0
   -1.0312   -1.0018    0.0000 H    0  0  0  0  0  0  0  0  0  0  0  0
    2.6311   -0.7601    0.0000 H    0  0  0  0  0  0  0  0  0  0  0  0
    1.0916   -1.9976    0.0000 A    0  0  0  0  0  0  0  0  0  0  0  0
    1.6749   -2.5810    0.0000 N    0  3  0  0  0  0  0  0  0  0  0  0
    2.4750   -2.6223    0.0000 Cl   0  5  0  0  0  0  0  0  0  0  0  0
    4.6593   -0.8813    0.0000 C    0  0  0  0  0  0  0  0  0  0  0  0
    5.3738   -0.4688    0.0000 C    0  0  0  0  0  0  0  0  0  0  0  0
    5.9572   -1.0522    0.0000 C    0  0  0  0  0  0  0  0  0  0  0  0
    6.6716   -0.6397    0.0000 C    0  0  0  0  0  0  0  0  0  0  0  0
    3.8343   -0.8813    0.0000 H    0  0  0  0  0  0  0  0  0  0  0  0
    7.4966   -0.6397    0.0000 H    0  0  0  0  0  0  0  0  0  0  0  0
    5.9572   -1.8772    0.0000 A    0  0  0  0  0  0  0  0  0  0  0  0
    6.5405   -2.4606    0.0000 N    0  3  0  0  0  0  0  0  0  0  0  0
    7.3406   -2.5019    0.0000 Cl   0  5  0  0  0  0  0  0  0  0  0  0
    9.5799   -0.6751    0.0000 C    0  0  0  0  0  0  0  0  0  0  0  0
   10.2943   -0.2626    0.0000 C    0  0  0  0  0  0  0  0  0  0  0  0
   10.8777   -0.8459    0.0000 C    0  0  0  0  0  0  0  0  0  0  0  0
   11.5922   -0.4334    0.0000 C    0  0  0  0  0  0  0  0  0  0  0  0
    8.7549   -0.6751    0.0000 H    0  0  0  0  0  0  0  0  0  0  0  0
   12.4172   -0.4334    0.0000 H    0  0  0  0  0  0  0  0  0  0  0  0
   10.8777   -1.6709    0.0000 A    0  0  0  0  0  0  0  0  0  0  0  0
   11.4611   -2.2543    0.0000 N    0  3  0  0  0  0  0  0  0  0  0  0
   12.2611   -2.2956    0.0000 Cl   0  5  0  0  0  0  0  0  0  0  0  0
   14.2942   -0.6162    0.0000 C    0  0  0  0  0  0  0  0  0  0  0  0
   15.0086   -0.2037    0.0000 C    0  0  0  0  0  0  0  0  0  0  0  0
   15.5920   -0.7870    0.0000 C    0  0  0  0  0  0  0  0  0  0  0  0
   16.3065   -0.3745    0.0000 C    0  0  0  0  0  0  0  0  0  0  0  0
   13.4692   -0.6162    0.0000 H    0  0  0  0  0  0  0  0  0  0  0  0
   17.1315   -0.3745    0.0000 H    0  0  0  0  0  0  0  0  0  0  0  0
   15.5920   -1.6120    0.0000 A    0  0  0  0  0  0  0  0  0  0  0  0
   16.1754   -2.1954    0.0000 N    0  3  0  0  0  0  0  0  0  0  0  0
   16.9754   -2.2367    0.0000 Cl   0  5  0  0  0  0  0  0  0  0  0  0
    5.9572   -3.0439    0.0000 C    0  0  0  0  0  0  0  0  0  0  0  0
    6.3697   -3.7584    0.0000 C    0  0  0  0  0  0  0  0  0  0  0  0
    7.1947   -3.7584    0.0000 O    0  0  0  0  0  0  0  0  0  0  0  0
    6.1561   -4.5553    0.0000 C    0  0  0  0  0  0  0  0  0  0  0  0
    6.5686   -5.2697    0.0000 N    0  0  0  0  0  0  0  0  0  0  0  0
    5.9853   -5.8531    0.0000 C    0  0  0  0  0  0  0  0  0  0  0  0
    5.9853   -6.6781    0.0000 C    0  0  0  0  0  0  0  0  0  0  0  0
    6.6998   -7.0906    0.0000 C    0  0  0  0  0  0  0  0  0  0  0  0
    5.2708   -7.0906    0.0000 C    0  0  0  0  0  0  0  0  0  0  0  0
    4.5563   -6.6781    0.0000 C    0  0  0  0  0  0  0  0  0  0  0  0
    7.5248   -7.0906    0.0000 H    0  0  0  0  0  0  0  0  0  0  0  0
    3.7313   -6.6781    0.0000 H    0  0  0  0  0  0  0  0  0  0  0  0
   11.8736   -2.9688    0.0000 C    0  0  0  0  0  0  0  0  0  0  0  0
   11.4611   -3.6832    0.0000 C    0  0  0  0  0  0  0  0  0  0  0  0
   11.8736   -4.3977    0.0000 C    0  0  0  0  0  0  0  0  0  0  0  0
   11.4611   -5.1122    0.0000 C    0  0  0  0  0  0  0  0  0  0  0  0
   11.8736   -5.8267    0.0000 C    0  0  0  0  0  0  0  0  0  0  0  0
   11.4611   -6.5411    0.0000 C    0  0  0  0  0  0  0  0  0  0  0  0
   11.8736   -7.2556    0.0000 C    0  0  0  0  0  0  0  0  0  0  0  0
   11.4611   -7.9701    0.0000 C    0  0  0  0  0  0  0  0  0  0  0  0
   11.8736   -8.6845    0.0000 C    0  0  0  0  0  0  0  0  0  0  0  0
   11.4611   -9.3990    0.0000 C    0  0  0  0  0  0  0  0  0  0  0  0
   16.5879   -2.9098    0.0000 C    0  0  0  0  0  0  0  0  0  0  0  0
   16.1754   -3.6243    0.0000 C    0  0  0  0  0  0  0  0  0  0  0  0
   16.5879   -4.3388    0.0000 C    0  0  0  0  0  0  0  0  0  0  0  0
   16.1754   -5.0533    0.0000 C    0  0  0  0  0  0  0  0  0  0  0  0
   16.5879   -5.7677    0.0000 C    0  0  0  0  0  0  0  0  0  0  0  0
   16.1754   -6.4822    0.0000 C    0  0  0  0  0  0  0  0  0  0  0  0
   16.5879   -7.1967    0.0000 N    0  3  0  0  0  0  0  0  0  0  0  0
   15.8734   -7.6092    0.0000 C    0  0  0  0  0  0  0  0  0  0  0  0
   17.0004   -7.9111    0.0000 C    0  0  0  0  0  0  0  0  0  0  0  0
   17.3023   -6.7842    0.0000 C    0  0  0  0  0  0  0  0  0  0  0  0
   17.6491   -7.3955    0.0000 Cl   0  5  0  0  0  0  0  0  0  0  0  0
  1  2  1  0  0  0  0
  2  3  1  0  0  0  0
  3  4  1  0  0  0  0
  1  5  1  0  0  0  0
  4  6  1  0  0  0  0
  3  7  1  0  0  0  0
  7  8  1  0  0  0  0
 10 11  1  0  0  0  0
 11 12  1  0  0  0  0
 12 13  1  0  0  0  0
 10 14  1  0  0  0  0
 13 15  1  0  0  0  0
 12 16  1  0  0  0  0
 16 17  1  0  0  0  0
 19 20  1  0  0  0  0
 20 21  1  0  0  0  0
 21 22  1  0  0  0  0
 19 23  1  0  0  0  0
 22 24  1  0  0  0  0
 21 25  1  0  0  0  0
 25 26  1  0  0  0  0
 28 29  1  0  0  0  0
 29 30  1  0  0  0  0
 30 31  1  0  0  0  0
 28 32  1  0  0  0  0
 31 33  1  0  0  0  0
 30 34  1  0  0  0  0
 34 35  1  0  0  0  0
 17 37  1  0  0  0  0
 37 38  1  0  0  0  0
 38 39  1  0  0  0  0
 38 40  1  0  0  0  0
 40 41  1  0  0  0  0
 41 42  1  0  0  0  0
 42 43  1  0  0  0  0
 43 44  1  0  0  0  0
 43 45  1  0  0  0  0
 45 46  1  0  0  0  0
 44 47  1  0  0  0  0
 46 48  1  0  0  0  0
 26 49  1  0  0  0  0
 49 50  1  0  0  0  0
 50 51  1  0  0  0  0
 51 52  1  0  0  0  0
 52 53  1  0  0  0  0
 53 54  1  0  0  0  0
 54 55  1  0  0  0  0
 55 56  1  0  0  0  0
 56 57  1  0  0  0  0
 57 58  1  0  0  0  0
 35 59  1  0  0  0  0
 59 60  1  0  0  0  0
 60 61  1  0  0  0  0
 61 62  1  0  0  0  0
 62 63  1  0  0  0  0
 63 64  1  0  0  0  0
 64 65  1  0  0  0  0
 65 66  1  0  0  0  0
 65 67  1  0  0  0  0
 65 68  1  0  0  0  0
M  END
> <DRUGBANK_ID>
DB00930

> <DRUG_GROUPS>
approved

> <GENERIC_NAME>
Colesevelam

> <SALTS>
Colesevelam hydrochloride

> <BRANDS>
CholestaGel; Lodalis; Welchol __ 

$$$$
