291
  Mrv0541 02231214342D          

 19 19  0  0  0  0            999 V2000
    2.3645    3.8405    0.0000 Cl   0  0  0  0  0  0  0  0  0  0  0  0
    5.2224    3.8405    0.0000 Cl   0  0  0  0  0  0  0  0  0  0  0  0
    2.3645   -3.5847    0.0000 O    0  0  0  0  0  0  0  0  0  0  0  0
    1.6500   -2.3472    0.0000 O    0  0  0  0  0  0  0  0  0  0  0  0
    3.7935    2.1904    0.0000 N    0  0  0  0  0  0  0  0  0  0  0  0
    3.7935    1.3654    0.0000 C    0  0  0  0  0  0  0  0  0  0  0  0
    3.7935   -1.1096    0.0000 C    0  0  0  0  0  0  0  0  0  0  0  0
    3.7935   -0.2846    0.0000 C    0  0  0  0  0  0  0  0  0  0  0  0
    3.0791   -1.5222    0.0000 C    0  0  0  0  0  0  0  0  0  0  0  0
    3.0791    2.6029    0.0000 C    0  0  0  0  0  0  0  0  0  0  0  0
    4.5080    2.6029    0.0000 C    0  0  0  0  0  0  0  0  0  0  0  0
    3.0791    0.9529    0.0000 C    0  0  0  0  0  0  0  0  0  0  0  0
    4.5080    0.9529    0.0000 C    0  0  0  0  0  0  0  0  0  0  0  0
    3.0791    0.1279    0.0000 C    0  0  0  0  0  0  0  0  0  0  0  0
    4.5080    0.1279    0.0000 C    0  0  0  0  0  0  0  0  0  0  0  0
    3.0791   -2.3472    0.0000 C    0  0  0  0  0  0  0  0  0  0  0  0
    3.0791    3.4280    0.0000 C    0  0  0  0  0  0  0  0  0  0  0  0
    4.5080    3.4280    0.0000 C    0  0  0  0  0  0  0  0  0  0  0  0
    2.3645   -2.7597    0.0000 C    0  0  0  0  0  0  0  0  0  0  0  0
  1 17  1  0  0  0  0
  2 18  1  0  0  0  0
  3 19  1  0  0  0  0
  4 19  2  0  0  0  0
  5  6  1  0  0  0  0
  5 10  1  0  0  0  0
  5 11  1  0  0  0  0
  6 12  2  0  0  0  0
  6 13  1  0  0  0  0
  7  8  1  0  0  0  0
  7  9  1  0  0  0  0
  8 14  2  0  0  0  0
  8 15  1  0  0  0  0
  9 16  1  0  0  0  0
 10 17  1  0  0  0  0
 11 18  1  0  0  0  0
 12 14  1  0  0  0  0
 13 15  2  0  0  0  0
 16 19  1  0  0  0  0
M  END
> <DRUGBANK_ID>
DB00291

> <DRUG_GROUPS>
approved

> <GENERIC_NAME>
Chlorambucil

> <SYNONYMS>
4-(p-bis(β-chloroethyl)aminophenyl)butyric acid; 4-[p-[bis(2-chloroethyl)amino]phenyl]butyric acid; Chloraminophen; N,N-di-2-chloroethyl-γ-p-aminophenylbutyric acid; Phenylbutyric Acid Nitrogen Mustard; γ-[p-di(2-chloroethyl)aminophenyl]butyric acid

> <BRANDS>
Leukeran

> <CHEMICAL_FORMULA>
C14H19Cl2NO2

> <MOLECULAR_WEIGHT>
304.212

> <EXACT_MASS>
303.079284271

> <IUPAC_NAME>
4-{4-[bis(2-chloroethyl)amino]phenyl}butanoic acid

> <IUPAC_TRADITIONAL_NAME>
chlorambucil

> <INCHI_IDENTIFIER>
InChI=1S/C14H19Cl2NO2/c15-8-10-17(11-9-16)13-6-4-12(5-7-13)2-1-3-14(18)19/h4-7H,1-3,8-11H2,(H,18,19)

> <INCHI_KEY>
InChIKey=JCKYGMPEJWAADB-UHFFFAOYSA-N

> <SMILES>
OC(=O)CCCC1=CC=C(C=C1)N(CCCl)CCCl

> <JCHEM_ACCEPTOR_COUNT>
3

> <JCHEM_DONOR_COUNT>
1

> <JCHEM_ACIDIC_PKA>
4.46

> <JCHEM_BASIC_PKA>
1.72

> <JCHEM_PHYSIOLOGICAL_CHARGE>
-1

> <ALOGPS_LOGP>
3.81

> <JCHEM_LOGP>
3.94

> <ALOGPS_LOGS>
-3.6

> <JCHEM_POLARIZABILITY>
31.98

> <JCHEM_POLAR_SURFACE_AREA>
40.54

> <JCHEM_REFRACTIVITY>
79.68

> <JCHEM_ROTATABLE_BOND_COUNT>
9

> <ALOGPS_SOLUBILITY>
7.73e-02 g/l __ 

$$$$
