533
  Mrv0541 02231214452D          

 22 24  0  0  0  0            999 V2000
    4.6713   -2.2060    0.0000 S   0  0  0  0  0  0  0  0  0  0  0  0
    5.0838    2.3636    0.0000 O   0  0  0  0  0  0  0  0  0  0  0  0
    3.7739    3.0310    0.0000 O   0  0  0  0  0  0  0  0  0  0  0  0
    3.8463   -2.2060    0.0000 O   0  0  0  0  0  0  0  0  0  0  0  0
    5.4963   -2.2060    0.0000 O   0  0  0  0  0  0  0  0  0  0  0  0
    4.6713    1.0940    0.0000 C   0  0  0  0  0  0  0  0  0  0  0  0
    4.6713    0.2690    0.0000 C   0  0  0  0  0  0  0  0  0  0  0  0
    4.0039    1.5790    0.0000 C   0  0  0  0  0  0  0  0  0  0  0  0
    5.3388    1.5790    0.0000 C   0  0  0  0  0  0  0  0  0  0  0  0
    4.6713   -1.3810    0.0000 C   0  0  0  0  0  0  0  0  0  0  0  0
    3.2192    1.3240    0.0000 C   0  0  0  0  0  0  0  0  0  0  0  0
    5.3858   -0.1435    0.0000 C   0  0  0  0  0  0  0  0  0  0  0  0
    3.9569   -0.1435    0.0000 C   0  0  0  0  0  0  0  0  0  0  0  0
    4.2588    2.3636    0.0000 C   0  0  0  0  0  0  0  0  0  0  0  0
    5.3858   -0.9685    0.0000 C   0  0  0  0  0  0  0  0  0  0  0  0
    3.9569   -0.9685    0.0000 C   0  0  0  0  0  0  0  0  0  0  0  0
    3.0477    0.5170    0.0000 C   0  0  0  0  0  0  0  0  0  0  0  0
    2.6062    1.8761    0.0000 C   0  0  0  0  0  0  0  0  0  0  0  0
    4.6713   -3.0310    0.0000 C   0  0  0  0  0  0  0  0  0  0  0  0
    2.2631    0.2621    0.0000 C   0  0  0  0  0  0  0  0  0  0  0  0
    1.8215    1.6211    0.0000 C   0  0  0  0  0  0  0  0  0  0  0  0
    1.6500    0.8141    0.0000 C   0  0  0  0  0  0  0  0  0  0  0  0
  1  4  2  0  0  0  0
  1  5  2  0  0  0  0
  1 10  1  0  0  0  0
  1 19  1  0  0  0  0
  2  9  1  0  0  0  0
  2 14  1  0  0  0  0
  3 14  2  0  0  0  0
  6  7  1  0  0  0  0
  6  8  2  0  0  0  0
  6  9  1  0  0  0  0
  7 12  2  0  0  0  0
  7 13  1  0  0  0  0
  8 11  1  0  0  0  0
  8 14  1  0  0  0  0
 10 15  2  0  0  0  0
 10 16  1  0  0  0  0
 11 17  2  0  0  0  0
 11 18  1  0  0  0  0
 12 15  1  0  0  0  0
 13 16  2  0  0  0  0
 17 20  1  0  0  0  0
 18 21  2  0  0  0  0
 20 22  2  0  0  0  0
 21 22  1  0  0  0  0
M  END
> <DRUGBANK_ID>
DB00533

> <DRUG_GROUPS>
investigational; withdrawn

> <GENERIC_NAME>
Rofecoxib

> <BRANDS>


> <CHEMICAL_FORMULA>
C17H14O4S

> <MOLECULAR_WEIGHT>
314.356

> <EXACT_MASS>
314.061279626

> <IUPAC_NAME>
4-(4-methanesulfonylphenyl)-3-phenyl-2,5-dihydrofuran-2-one

> <IUPAC_TRADITIONAL_NAME>
rofecoxib

> <INCHI_IDENTIFIER>
InChI=1S/C17H14O4S/c1-22(19,20)14-9-7-12(8-10-14)15-11-21-17(18)16(15)13-5-3-2-4-6-13/h2-10H,11H2,1H3

> <INCHI_KEY>
InChIKey=RZJQGNCSTQAWON-UHFFFAOYSA-N

> <SMILES>
CS(=O)(=O)C1=CC=C(C=C1)C1=C(C(=O)OC1)C1=CC=CC=C1

> <JCHEM_ACCEPTOR_COUNT>
3

> <JCHEM_DONOR_COUNT>
0

> <JCHEM_ACIDIC_PKA>
14.84

> <JCHEM_BASIC_PKA>
-7

> <JCHEM_PHYSIOLOGICAL_CHARGE>
0

> <ALOGPS_LOGP>
2.32

> <JCHEM_LOGP>
2.56

> <ALOGPS_LOGS>
-4.5

> <JCHEM_POLARIZABILITY>
31.74

> <JCHEM_POLAR_SURFACE_AREA>
60.44

> <JCHEM_REFRACTIVITY>
84.08

> <JCHEM_ROTATABLE_BOND_COUNT>
3

> <ALOGPS_SOLUBILITY>
1.06e-02 g/l __ 

$$$$
