849
  Mrv0541 02231215032D          

 18 19  0  0  1  0            999 V2000
    1.6500    0.1658    0.0000 O   0  0  0  0  0  0  0  0  0  0  0  0
    4.5080    0.1658    0.0000 O   0  0  0  0  0  0  0  0  0  0  0  0
    3.0791   -2.3092    0.0000 O   0  0  0  0  0  0  0  0  0  0  0  0
    2.3645   -1.0717    0.0000 N   0  0  0  0  0  0  0  0  0  0  0  0
    3.7935   -1.0717    0.0000 N   0  0  0  0  0  0  0  0  0  0  0  0
    3.0791    0.1658    0.0000 C   0  0  0  0  0  0  0  0  0  0  0  0
    2.6665    0.8803    0.0000 C   0  0  0  0  0  0  0  0  0  0  0  0
    3.4916    0.8803    0.0000 C   0  0  0  0  0  0  0  0  0  0  0  0
    2.3645   -0.2467    0.0000 C   0  0  0  0  0  0  0  0  0  0  0  0
    3.7935   -0.2467    0.0000 C   0  0  0  0  0  0  0  0  0  0  0  0
    1.8415    0.8803    0.0000 C   0  0  0  0  0  0  0  0  0  0  0  0
    3.0791   -1.4842    0.0000 C   0  0  0  0  0  0  0  0  0  0  0  0
    3.0791    1.5948    0.0000 C   0  0  0  0  0  0  0  0  0  0  0  0
    4.3166    0.8803    0.0000 C   0  0  0  0  0  0  0  0  0  0  0  0
    1.6500   -1.4842    0.0000 C   0  0  0  0  0  0  0  0  0  0  0  0
    3.4916    2.3092    0.0000 C   0  0  0  0  0  0  0  0  0  0  0  0
    4.7291    1.5948    0.0000 C   0  0  0  0  0  0  0  0  0  0  0  0
    4.3166    2.3092    0.0000 C   0  0  0  0  0  0  0  0  0  0  0  0
  1  9  2  0  0  0  0
  2 10  2  0  0  0  0
  3 12  2  0  0  0  0
  4  9  1  0  0  0  0
  4 12  1  0  0  0  0
  4 15  1  0  0  0  0
  5 10  1  0  0  0  0
  5 12  1  0  0  0  0
  6  7  1  0  0  0  0
  6  8  1  0  0  0  0
  6  9  1  0  0  0  0
  6 10  1  0  0  0  0
  7 11  1  0  0  0  0
  8 13  2  0  0  0  0
  8 14  1  0  0  0  0
 13 16  1  0  0  0  0
 14 17  2  0  0  0  0
 16 18  2  0  0  0  0
 17 18  1  0  0  0  0
M  END
> <DRUGBANK_ID>
DB00849

> <DRUG_GROUPS>
approved

> <GENERIC_NAME>
Methylphenobarbital

> <SYNONYMS>
Enphenemal; Mephobarbital; Mephobarbitone; Méthylphénobarbital; Methylphenobarbital; Methylphenobarbitalum; Methylphenobarbitone; Metilfenobarbital

> <BRANDS>
Mebaral; Mephyltaletten; Phemiton; Phemitone; Phenmiton; Prominal

> <CHEMICAL_FORMULA>
C13H14N2O3

> <MOLECULAR_WEIGHT>
246.2619

> <EXACT_MASS>
246.100442324

> <IUPAC_NAME>
5-ethyl-1-methyl-5-phenyl-1,3-diazinane-2,4,6-trione

> <IUPAC_TRADITIONAL_NAME>
mephobarbital

> <INCHI_IDENTIFIER>
InChI=1S/C13H14N2O3/c1-3-13(9-7-5-4-6-8-9)10(16)14-12(18)15(2)11(13)17/h4-8H,3H2,1-2H3,(H,14,16,18)

> <INCHI_KEY>
InChIKey=ALARQZQTBTVLJV-UHFFFAOYSA-N

> <SMILES>
CCC1(C(=O)NC(=O)N(C)C1=O)C1=CC=CC=C1

> <JCHEM_ACCEPTOR_COUNT>
3

> <JCHEM_DONOR_COUNT>
1

> <JCHEM_ACIDIC_PKA>
8.4

> <JCHEM_PHYSIOLOGICAL_CHARGE>
0

> <ALOGPS_LOGP>
1.95

> <JCHEM_LOGP>
1.63

> <ALOGPS_LOGS>
-2.5

> <JCHEM_POLARIZABILITY>
24.62

> <JCHEM_POLAR_SURFACE_AREA>
66.48

> <JCHEM_REFRACTIVITY>
64.64

> <JCHEM_ROTATABLE_BOND_COUNT>
2

> <ALOGPS_SOLUBILITY>
7.10e-01 g/l __ 

$$$$
