204
  Mrv0541 02231214312D          

 29 30  0  0  1  0            999 V2000
    5.9370    5.1564    0.0000 S   0  0  0  0  0  0  0  0  0  0  0  0
    2.3645   -5.1564    0.0000 S   0  0  0  0  0  0  0  0  0  0  0  0
    3.0791   -1.4438    0.0000 O   0  0  0  0  0  0  0  0  0  0  0  0
    6.3495    4.4419    0.0000 O   0  0  0  0  0  0  0  0  0  0  0  0
    5.5245    5.8708    0.0000 O   0  0  0  0  0  0  0  0  0  0  0  0
    1.9520   -4.4419    0.0000 O   0  0  0  0  0  0  0  0  0  0  0  0
    2.7770   -5.8708    0.0000 O   0  0  0  0  0  0  0  0  0  0  0  0
    4.5080    0.2063    0.0000 N   0  0  0  0  0  0  0  0  0  0  0  0
    5.2224    4.7439    0.0000 N   0  0  0  0  0  0  0  0  0  0  0  0
    3.0791   -4.7439    0.0000 N   0  0  0  0  0  0  0  0  0  0  0  0
    4.5080    1.0313    0.0000 C   0  0  0  0  0  0  0  0  0  0  0  0
    5.2224    1.4438    0.0000 C   0  0  0  0  0  0  0  0  0  0  0  0
    3.7935   -0.2063    0.0000 C   0  0  0  0  0  0  0  0  0  0  0  0
    5.2224    2.2688    0.0000 C   0  0  0  0  0  0  0  0  0  0  0  0
    3.7935   -1.0313    0.0000 C   0  0  0  0  0  0  0  0  0  0  0  0
    5.2224   -0.2063    0.0000 C   0  0  0  0  0  0  0  0  0  0  0  0
    4.5080    2.6813    0.0000 C   0  0  0  0  0  0  0  0  0  0  0  0
    5.9370    2.6813    0.0000 C   0  0  0  0  0  0  0  0  0  0  0  0
    5.2224    3.9188    0.0000 C   0  0  0  0  0  0  0  0  0  0  0  0
    4.5080    3.5063    0.0000 C   0  0  0  0  0  0  0  0  0  0  0  0
    5.9370    3.5063    0.0000 C   0  0  0  0  0  0  0  0  0  0  0  0
    3.0791   -2.2688    0.0000 C   0  0  0  0  0  0  0  0  0  0  0  0
    3.0791   -3.9188    0.0000 C   0  0  0  0  0  0  0  0  0  0  0  0
    2.3645   -2.6813    0.0000 C   0  0  0  0  0  0  0  0  0  0  0  0
    3.7935   -2.6813    0.0000 C   0  0  0  0  0  0  0  0  0  0  0  0
    2.3645   -3.5063    0.0000 C   0  0  0  0  0  0  0  0  0  0  0  0
    3.7935   -3.5063    0.0000 C   0  0  0  0  0  0  0  0  0  0  0  0
    6.6515    5.5689    0.0000 C   0  0  0  0  0  0  0  0  0  0  0  0
    1.6500   -5.5689    0.0000 C   0  0  0  0  0  0  0  0  0  0  0  0
  1  4  2  0  0  0  0
  1  5  2  0  0  0  0
  1  9  1  0  0  0  0
  1 28  1  0  0  0  0
  2  6  2  0  0  0  0
  2  7  2  0  0  0  0
  2 10  1  0  0  0  0
  2 29  1  0  0  0  0
  3 15  1  0  0  0  0
  3 22  1  0  0  0  0
  8 11  1  0  0  0  0
  8 13  1  0  0  0  0
  8 16  1  0  0  0  0
  9 19  1  0  0  0  0
 10 23  1  0  0  0  0
 11 12  1  0  0  0  0
 12 14  1  0  0  0  0
 13 15  1  0  0  0  0
 14 17  2  0  0  0  0
 14 18  1  0  0  0  0
 17 20  1  0  0  0  0
 18 21  2  0  0  0  0
 19 20  2  0  0  0  0
 19 21  1  0  0  0  0
 22 24  2  0  0  0  0
 22 25  1  0  0  0  0
 23 26  2  0  0  0  0
 23 27  1  0  0  0  0
 24 26  1  0  0  0  0
 25 27  2  0  0  0  0
M  END
> <DRUGBANK_ID>
DB00204

> <DRUG_GROUPS>
approved

> <GENERIC_NAME>
Dofetilide

> <SYNONYMS>
Dofetilida; Dofetilidum

> <BRANDS>
Tikosyn

> <CHEMICAL_FORMULA>
C19H27N3O5S2

> <MOLECULAR_WEIGHT>
441.565

> <EXACT_MASS>
441.139212369

> <IUPAC_NAME>
N-[4-(2-{[2-(4-methanesulfonamidophenoxy)ethyl](methyl)amino}ethyl)phenyl]methanesulfonamide

> <IUPAC_TRADITIONAL_NAME>
dofetilide

> <INCHI_IDENTIFIER>
InChI=1S/C19H27N3O5S2/c1-22(13-12-16-4-6-17(7-5-16)20-28(2,23)24)14-15-27-19-10-8-18(9-11-19)21-29(3,25)26/h4-11,20-21H,12-15H2,1-3H3

> <INCHI_KEY>
InChIKey=IXTMWRCNAAVVAI-UHFFFAOYSA-N

> <SMILES>
CN(CCOC1=CC=C(NS(C)(=O)=O)C=C1)CCC1=CC=C(NS(C)(=O)=O)C=C1

> <JCHEM_ACCEPTOR_COUNT>
6

> <JCHEM_DONOR_COUNT>
2

> <JCHEM_ACIDIC_PKA>
10.15

> <JCHEM_BASIC_PKA>
8.99

> <JCHEM_PHYSIOLOGICAL_CHARGE>
1

> <ALOGPS_LOGP>
2.17

> <JCHEM_LOGP>
0.24

> <ALOGPS_LOGS>
-4.3

> <JCHEM_POLARIZABILITY>
46.03

> <JCHEM_POLAR_SURFACE_AREA>
104.81

> <JCHEM_REFRACTIVITY>
113.27

> <JCHEM_ROTATABLE_BOND_COUNT>
9

> <ALOGPS_SOLUBILITY>
1.98e-02 g/l __ 

$$$$
