279
  Mrv0541 02231214342D          

 23 24  0  0  1  0            999 V2000
    4.9509    0.8250    0.0000 I   0  0  0  0  0  0  0  0  0  0  0  0
    2.0930    0.8250    0.0000 I   0  0  0  0  0  0  0  0  0  0  0  0
    6.3799    1.6500    0.0000 I   0  0  0  0  0  0  0  0  0  0  0  0
    3.5220    1.6500    0.0000 O   0  0  0  0  0  0  0  0  0  0  0  0
    2.0930   -3.3001    0.0000 O   0  0  0  0  0  0  0  0  0  0  0  0
    3.5220   -3.3001    0.0000 O   0  0  0  0  0  0  0  0  0  0  0  0
    6.3799    3.3001    0.0000 O   0  0  0  0  0  0  0  0  0  0  0  0
    2.0930   -1.6500    0.0000 N   0  0  0  0  0  0  0  0  0  0  0  0
    3.5220   -1.6500    0.0000 C   0  0  0  0  0  0  0  0  0  0  0  0
    2.8075   -2.0625    0.0000 C   0  0  1  0  0  0  0  0  0  0  0  0
    3.5220   -0.8250    0.0000 C   0  0  0  0  0  0  0  0  0  0  0  0
    2.8075   -0.4125    0.0000 C   0  0  0  0  0  0  0  0  0  0  0  0
    4.2365   -0.4125    0.0000 C   0  0  0  0  0  0  0  0  0  0  0  0
    3.5220    0.8250    0.0000 C   0  0  0  0  0  0  0  0  0  0  0  0
    4.2365    0.4125    0.0000 C   0  0  0  0  0  0  0  0  0  0  0  0
    2.8075    0.4125    0.0000 C   0  0  0  0  0  0  0  0  0  0  0  0
    2.8075   -2.8876    0.0000 C   0  0  0  0  0  0  0  0  0  0  0  0
    4.2365    2.0625    0.0000 C   0  0  0  0  0  0  0  0  0  0  0  0
    4.9509    1.6500    0.0000 C   0  0  0  0  0  0  0  0  0  0  0  0
    4.2365    2.8876    0.0000 C   0  0  0  0  0  0  0  0  0  0  0  0
    5.6655    2.0625    0.0000 C   0  0  0  0  0  0  0  0  0  0  0  0
    4.9509    3.3001    0.0000 C   0  0  0  0  0  0  0  0  0  0  0  0
    5.6655    2.8876    0.0000 C   0  0  0  0  0  0  0  0  0  0  0  0
  1 15  1  0  0  0  0
  2 16  1  0  0  0  0
  3 21  1  0  0  0  0
  4 14  1  0  0  0  0
  4 18  1  0  0  0  0
  5 17  1  0  0  0  0
  6 17  2  0  0  0  0
  7 23  1  0  0  0  0
 10  8  1  1  0  0  0
  9 10  1  0  0  0  0
  9 11  1  0  0  0  0
 10 17  1  0  0  0  0
 11 12  2  0  0  0  0
 11 13  1  0  0  0  0
 12 16  1  0  0  0  0
 13 15  2  0  0  0  0
 14 15  1  0  0  0  0
 14 16  2  0  0  0  0
 18 19  2  0  0  0  0
 18 20  1  0  0  0  0
 19 21  1  0  0  0  0
 20 22  2  0  0  0  0
 21 23  2  0  0  0  0
 22 23  1  0  0  0  0
M  END
> <DRUGBANK_ID>
DB00279

> <DRUG_GROUPS>
approved

> <GENERIC_NAME>
Liothyronine

> <SYNONYMS>
3,3',5-triiodo-L-thyronine; 3,5,3'-Triiodo-L-thyronine; 3,5,3'-Triiodothyronine; L-3,5,3'-Triiodothyronine; L-T3; O-(4-hydroxy-3-iodophenyl)-3,5-diiodo-L-tyrosine; T3; Triiodothyronine

> <SALTS>
Liothyronine Sodium

> <BRANDS>
Cytomel; Tertroxin; Tresitope; Triostat

> <CHEMICAL_FORMULA>
C15H12I3NO4

> <MOLECULAR_WEIGHT>
650.9735

> <EXACT_MASS>
650.790038137

> <IUPAC_NAME>
(2S)-2-amino-3-[4-(4-hydroxy-3-iodophenoxy)-3,5-diiodophenyl]propanoic acid

> <IUPAC_TRADITIONAL_NAME>
liothyronine

> <INCHI_IDENTIFIER>
InChI=1S/C15H12I3NO4/c16-9-6-8(1-2-13(9)20)23-14-10(17)3-7(4-11(14)18)5-12(19)15(21)22/h1-4,6,12,20H,5,19H2,(H,21,22)/t12-/m0/s1

> <INCHI_KEY>
InChIKey=AUYYCJSJGJYCDS-LBPRGKRZSA-N

> <SMILES>
N[C@@H](CC1=CC(I)=C(OC2=CC(I)=C(O)C=C2)C(I)=C1)C(O)=O

> <JCHEM_ACCEPTOR_COUNT>
4

> <JCHEM_DONOR_COUNT>
3

> <JCHEM_ACIDIC_PKA>
0.3

> <JCHEM_BASIC_PKA>
9.48

> <JCHEM_PHYSIOLOGICAL_CHARGE>
0

> <ALOGPS_LOGP>
0.82

> <JCHEM_LOGP>
2.8

> <ALOGPS_LOGS>
-4.5

> <JCHEM_POLARIZABILITY>
43.92

> <JCHEM_POLAR_SURFACE_AREA>
92.78

> <JCHEM_REFRACTIVITY>
113.43

> <JCHEM_ROTATABLE_BOND_COUNT>
5

> <ALOGPS_SOLUBILITY>
1.95e-02 g/l __ 

$$$$
