426
  Mrv0541 02231214402D          

 23 24  0  0  0  0            999 V2000
    6.0423    1.6137    0.0000 O   0  0  0  0  0  0  0  0  0  0  0  0
    7.4005    1.1698    0.0000 O   0  0  0  0  0  0  0  0  0  0  0  0
    4.6840    2.0577    0.0000 O   0  0  0  0  0  0  0  0  0  0  0  0
    8.7588    0.7258    0.0000 O   0  0  0  0  0  0  0  0  0  0  0  0
    5.0170   -1.5230    0.0000 N   0  0  0  0  0  0  0  0  0  0  0  0
    5.0170   -2.8509    0.0000 N   0  0  0  0  0  0  0  0  0  0  0  0
    3.5220   -1.3619    0.0000 N   0  0  0  0  0  0  0  0  0  0  0  0
    2.8075   -2.5994    0.0000 N   0  0  0  0  0  0  0  0  0  0  0  0
    2.0930   -1.3619    0.0000 N   0  0  0  0  0  0  0  0  0  0  0  0
    6.3370    0.2155    0.0000 C   0  0  0  0  0  0  0  0  0  0  0  0
    6.0806   -0.5687    0.0000 C   0  0  0  0  0  0  0  0  0  0  0  0
    5.2734   -0.7389    0.0000 C   0  0  0  0  0  0  0  0  0  0  0  0
    5.7859    0.8295    0.0000 C   0  0  0  0  0  0  0  0  0  0  0  0
    7.1442    0.3856    0.0000 C   0  0  0  0  0  0  0  0  0  0  0  0
    4.2364   -1.7744    0.0000 C   0  0  0  0  0  0  0  0  0  0  0  0
    5.4985   -2.1869    0.0000 C   0  0  0  0  0  0  0  0  0  0  0  0
    4.2364   -2.5994    0.0000 C   0  0  0  0  0  0  0  0  0  0  0  0
    3.5220   -3.0119    0.0000 C   0  0  0  0  0  0  0  0  0  0  0  0
    5.4913    2.2278    0.0000 C   0  0  0  0  0  0  0  0  0  0  0  0
    8.2078    1.3399    0.0000 C   0  0  0  0  0  0  0  0  0  0  0  0
    2.8075   -1.7744    0.0000 C   0  0  0  0  0  0  0  0  0  0  0  0
    5.7476    3.0119    0.0000 C   0  0  0  0  0  0  0  0  0  0  0  0
    8.4641    2.1241    0.0000 C   0  0  0  0  0  0  0  0  0  0  0  0
  1 13  1  0  0  0  0
  1 19  1  0  0  0  0
  2 14  1  0  0  0  0
  2 20  1  0  0  0  0
  3 19  2  0  0  0  0
  4 20  2  0  0  0  0
  5 12  1  0  0  0  0
  5 15  1  0  0  0  0
  5 16  1  0  0  0  0
  6 16  2  0  0  0  0
  6 17  1  0  0  0  0
  7 15  2  0  0  0  0
  7 21  1  0  0  0  0
  8 18  1  0  0  0  0
  8 21  2  0  0  0  0
  9 21  1  0  0  0  0
 10 11  1  0  0  0  0
 10 13  1  0  0  0  0
 10 14  1  0  0  0  0
 11 12  1  0  0  0  0
 15 17  1  0  0  0  0
 17 18  2  0  0  0  0
 19 22  1  0  0  0  0
 20 23  1  0  0  0  0
M  END
> <DRUGBANK_ID>
DB00426

> <DRUG_GROUPS>
approved

> <GENERIC_NAME>
Famciclovir

> <SYNONYMS>
Famciclovirum; FCV

> <BRANDS>


> <CHEMICAL_FORMULA>
C14H19N5O4

> <MOLECULAR_WEIGHT>
321.3318

> <EXACT_MASS>
321.143704121

> <IUPAC_NAME>
2-[(acetyloxy)methyl]-4-(2-amino-9H-purin-9-yl)butyl acetate

> <IUPAC_TRADITIONAL_NAME>
famciclovir

> <INCHI_IDENTIFIER>
InChI=1S/C14H19N5O4/c1-9(20)22-6-11(7-23-10(2)21)3-4-19-8-17-12-5-16-14(15)18-13(12)19/h5,8,11H,3-4,6-7H2,1-2H3,(H2,15,16,18)

> <INCHI_KEY>
InChIKey=GGXKWVWZWMLJEH-UHFFFAOYSA-N

> <SMILES>
CC(=O)OCC(CCN1C=NC2=CN=C(N)N=C12)COC(C)=O

> <JCHEM_ACCEPTOR_COUNT>
6

> <JCHEM_DONOR_COUNT>
1

> <JCHEM_ACIDIC_PKA>
16.7

> <JCHEM_BASIC_PKA>
5.05

> <JCHEM_PHYSIOLOGICAL_CHARGE>
0

> <ALOGPS_LOGP>
0.13

> <JCHEM_LOGP>
-0.48

> <ALOGPS_LOGS>
-2.4

> <JCHEM_POLARIZABILITY>
32.83

> <JCHEM_POLAR_SURFACE_AREA>
122.22

> <JCHEM_REFRACTIVITY>
81.54

> <JCHEM_ROTATABLE_BOND_COUNT>
9

> <ALOGPS_SOLUBILITY>
1.32e+00 g/l __ 

$$$$
