746
  Mrv0541 02231214582D          

 39 38  0  0  0  0            999 V2000
   14.2380   -1.0312    0.0000 O   0  0  0  0  0  0  0  0  0  0  0  0
    6.3793    1.0312    0.0000 O   0  0  0  0  0  0  0  0  0  0  0  0
   14.9524    1.0312    0.0000 O   0  0  0  0  0  0  0  0  0  0  0  0
    9.2371    1.0312    0.0000 O   0  0  0  0  0  0  0  0  0  0  0  0
   17.0957   -1.0312    0.0000 O   0  0  0  0  0  0  0  0  0  0  0  0
   22.0966    1.0312    0.0000 O   0  0  0  0  0  0  0  0  0  0  0  0
    7.0938   -1.0312    0.0000 O   0  0  0  0  0  0  0  0  0  0  0  0
   22.8111   -1.0312    0.0000 O   0  0  0  0  0  0  0  0  0  0  0  0
   14.2380   -0.2063    0.0000 N   0  0  0  0  0  0  0  0  0  0  0  0
    9.9515   -0.2063    0.0000 N   0  0  0  0  0  0  0  0  0  0  0  0
   17.8101    0.2063    0.0000 N   0  0  0  0  0  0  0  0  0  0  0  0
    6.3793    0.2063    0.0000 N   0  0  0  0  0  0  0  0  0  0  0  0
   22.0966    0.2063    0.0000 N   0  0  0  0  0  0  0  0  0  0  0  0
    2.0928    0.2063    0.0000 N   0  0  0  0  0  0  0  0  0  0  0  0
   12.0947    0.2063    0.0000 C   0  0  0  0  0  0  0  0  0  0  0  0
   12.8091   -0.2063    0.0000 C   0  0  0  0  0  0  0  0  0  0  0  0
   11.3804   -0.2063    0.0000 C   0  0  0  0  0  0  0  0  0  0  0  0
   19.9534   -0.2063    0.0000 C   0  0  0  0  0  0  0  0  0  0  0  0
   13.5236    0.2063    0.0000 C   0  0  0  0  0  0  0  0  0  0  0  0
   19.2389    0.2063    0.0000 C   0  0  0  0  0  0  0  0  0  0  0  0
   10.6658    0.2063    0.0000 C   0  0  0  0  0  0  0  0  0  0  0  0
   20.6678    0.2063    0.0000 C   0  0  0  0  0  0  0  0  0  0  0  0
    4.9504    0.2063    0.0000 C   0  0  0  0  0  0  0  0  0  0  0  0
    4.2361   -0.2063    0.0000 C   0  0  0  0  0  0  0  0  0  0  0  0
   18.5245   -0.2063    0.0000 C   0  0  0  0  0  0  0  0  0  0  0  0
    5.6650   -0.2063    0.0000 C   0  0  0  0  0  0  0  0  0  0  0  0
    3.5217    0.2063    0.0000 C   0  0  0  0  0  0  0  0  0  0  0  0
   21.3822   -0.2063    0.0000 C   0  0  0  0  0  0  0  0  0  0  0  0
   15.6668   -0.2063    0.0000 C   0  0  0  0  0  0  0  0  0  0  0  0
   16.3812    0.2063    0.0000 C   0  0  0  0  0  0  0  0  0  0  0  0
    8.5226   -0.2063    0.0000 C   0  0  0  0  0  0  0  0  0  0  0  0
    7.8082    0.2063    0.0000 C   0  0  0  0  0  0  0  0  0  0  0  0
   14.9524    0.2063    0.0000 C   0  0  0  0  0  0  0  0  0  0  0  0
    9.2371    0.2063    0.0000 C   0  0  0  0  0  0  0  0  0  0  0  0
   17.0957   -0.2063    0.0000 C   0  0  0  0  0  0  0  0  0  0  0  0
    2.8072   -0.2063    0.0000 C   0  0  0  0  0  0  0  0  0  0  0  0
    7.0938   -0.2063    0.0000 C   0  0  0  0  0  0  0  0  0  0  0  0
   22.8111   -0.2063    0.0000 C   0  0  0  0  0  0  0  0  0  0  0  0
   23.5255    0.2063    0.0000 C   0  0  0  0  0  0  0  0  0  0  0  0
  1  9  1  0  0  0  0
  2 12  1  0  0  0  0
  3 33  2  0  0  0  0
  4 34  2  0  0  0  0
  5 35  2  0  0  0  0
  6 13  1  0  0  0  0
  7 37  2  0  0  0  0
  8 38  2  0  0  0  0
  9 19  1  0  0  0  0
  9 33  1  0  0  0  0
 10 21  1  0  0  0  0
 10 34  1  0  0  0  0
 11 25  1  0  0  0  0
 11 35  1  0  0  0  0
 12 26  1  0  0  0  0
 12 37  1  0  0  0  0
 13 28  1  0  0  0  0
 13 38  1  0  0  0  0
 14 36  1  0  0  0  0
 15 16  1  0  0  0  0
 15 17  1  0  0  0  0
 16 19  1  0  0  0  0
 17 21  1  0  0  0  0
 18 20  1  0  0  0  0
 18 22  1  0  0  0  0
 20 25  1  0  0  0  0
 22 28  1  0  0  0  0
 23 24  1  0  0  0  0
 23 26  1  0  0  0  0
 24 27  1  0  0  0  0
 27 36  1  0  0  0  0
 29 30  1  0  0  0  0
 29 33  1  0  0  0  0
 30 35  1  0  0  0  0
 31 32  1  0  0  0  0
 31 34  1  0  0  0  0
 32 37  1  0  0  0  0
 38 39  1  0  0  0  0
M  END
> <DRUGBANK_ID>
DB00746

> <DRUG_GROUPS>
approved; investigational

> <GENERIC_NAME>
Deferoxamine

> <SYNONYMS>
Deferoxamin; Deferoxamina; Déferoxamine; Deferoxaminum; Desferrioxamine; DFOA; DFOM

> <SALTS>
Deferoxamine Hydrochloride; Deferoxamine mesylate

> <BRANDS>
Desferal; Desféral; Desferin

> <CHEMICAL_FORMULA>
C25H48N6O8

> <MOLECULAR_WEIGHT>
560.684

> <EXACT_MASS>
560.353362542

> <IUPAC_NAME>
N-(5-aminopentyl)-N-hydroxy-N'-[5-(N-hydroxy-3-{[5-(N-hydroxyacetamido)pentyl]carbamoyl}propanamido)pentyl]butanediamide

> <IUPAC_TRADITIONAL_NAME>
deferoxamine

> <INCHI_IDENTIFIER>
InChI=1S/C25H48N6O8/c1-21(32)29(37)18-9-3-6-16-27-22(33)12-14-25(36)31(39)20-10-4-7-17-28-23(34)11-13-24(35)30(38)19-8-2-5-15-26/h37-39H,2-20,26H2,1H3,(H,27,33)(H,28,34)

> <INCHI_KEY>
InChIKey=UBQYURCVBFRUQT-UHFFFAOYSA-N

> <SMILES>
CC(=O)N(O)CCCCCNC(=O)CCC(=O)N(O)CCCCCNC(=O)CCC(=O)N(O)CCCCCN

> <JCHEM_ACCEPTOR_COUNT>
9

> <JCHEM_DONOR_COUNT>
6

> <JCHEM_ACIDIC_PKA>
7.92

> <JCHEM_BASIC_PKA>
10.23

> <JCHEM_PHYSIOLOGICAL_CHARGE>
1

> <ALOGPS_LOGP>
0.93

> <JCHEM_LOGP>
-3.4

> <ALOGPS_LOGS>
-3.8

> <JCHEM_POLARIZABILITY>
62.41

> <JCHEM_POLAR_SURFACE_AREA>
205.84

> <JCHEM_REFRACTIVITY>
144.95

> <JCHEM_ROTATABLE_BOND_COUNT>
23

> <ALOGPS_SOLUBILITY>
9.90e-02 g/l __ 

$$$$
