183
  Mrv0541 02231214302D          

 54 56  0  0  1  0            999 V2000
    6.8736    0.4439    0.0000 S   0  0  0  0  0  0  0  0  0  0  0  0
    6.1047   -1.9087    0.0000 O   0  0  0  0  0  0  0  0  0  0  0  0
    3.6446   -0.2366    0.0000 O   0  0  0  0  0  0  0  0  0  0  0  0
    3.8624    2.7300    0.0000 O   0  0  0  0  0  0  0  0  0  0  0  0
    6.6558   -2.5227    0.0000 O   0  0  0  0  0  0  0  0  0  0  0  0
    1.9917    1.6055    0.0000 O   0  0  0  0  0  0  0  0  0  0  0  0
    6.5406    4.0246    0.0000 O   0  0  0  0  0  0  0  0  0  0  0  0
    3.0552    2.5599    0.0000 O   0  0  0  0  0  0  0  0  0  0  0  0
    9.6669   -4.8088    0.0000 O   0  0  0  0  0  0  0  0  0  0  0  0
    9.3723   -3.4105    0.0000 O   0  0  0  0  0  0  0  0  0  0  0  0
    4.7465   -1.4647    0.0000 N   0  0  0  0  0  0  0  0  0  0  0  0
    5.5922   -3.4770    0.0000 N   0  0  0  0  0  0  0  0  0  0  0  0
    4.7082    0.7177    0.0000 N   0  0  0  0  0  0  0  0  0  0  0  0
    3.9776   -5.1451    0.0000 N   0  0  0  0  0  0  0  0  0  0  0  0
    5.2207    2.2861    0.0000 N   0  0  0  0  0  0  0  0  0  0  0  0
    8.3087   -4.3649    0.0000 N   0  0  0  0  0  0  0  0  0  0  0  0
    6.8353    2.6263    0.0000 N   0  0  0  0  0  0  0  0  0  0  0  0
    5.0412   -2.8629    0.0000 C   0  0  1  0  0  0  0  0  0  0  0  0
    4.2339   -3.0331    0.0000 C   0  0  0  0  0  0  0  0  0  0  0  0
    5.0028   -0.6805    0.0000 C   0  0  1  0  0  0  0  0  0  0  0  0
    3.9776   -3.8173    0.0000 C   0  0  0  0  0  0  0  0  0  0  0  0
    5.2975   -2.0788    0.0000 C   0  0  0  0  0  0  0  0  0  0  0  0
    5.8100   -0.5104    0.0000 C   0  0  0  0  0  0  0  0  0  0  0  0
    3.1970   -4.0687    0.0000 C   0  0  0  0  0  0  0  0  0  0  0  0
    4.4518   -0.0665    0.0000 C   0  0  0  0  0  0  0  0  0  0  0  0
    4.1571    1.3317    0.0000 C   0  0  1  0  0  0  0  0  0  0  0  0
    3.1970   -4.8937    0.0000 C   0  0  0  0  0  0  0  0  0  0  0  0
    4.4591   -4.4812    0.0000 C   0  0  0  0  0  0  0  0  0  0  0  0
    6.0664    0.2738    0.0000 C   0  0  0  0  0  0  0  0  0  0  0  0
    3.3499    1.1616    0.0000 C   0  0  0  0  0  0  0  0  0  0  0  0
    2.4824   -3.6562    0.0000 C   0  0  0  0  0  0  0  0  0  0  0  0
    4.4135    2.1160    0.0000 C   0  0  0  0  0  0  0  0  0  0  0  0
    5.4770    3.0703    0.0000 C   0  0  1  0  0  0  0  0  0  0  0  0
    6.3994   -3.3069    0.0000 C   0  0  0  0  0  0  0  0  0  0  0  0
    2.4824   -5.3062    0.0000 C   0  0  0  0  0  0  0  0  0  0  0  0
    6.9504   -3.9209    0.0000 C   0  0  0  0  0  0  0  0  0  0  0  0
    4.9260    3.6843    0.0000 C   0  0  0  0  0  0  0  0  0  0  0  0
    1.7680   -4.0687    0.0000 C   0  0  0  0  0  0  0  0  0  0  0  0
    1.7680   -4.8937    0.0000 C   0  0  0  0  0  0  0  0  0  0  0  0
    7.7577   -3.7508    0.0000 C   0  0  0  0  0  0  0  0  0  0  0  0
    5.1824    4.4685    0.0000 C   0  0  0  0  0  0  0  0  0  0  0  0
    2.7989    1.7757    0.0000 C   0  0  0  0  0  0  0  0  0  0  0  0
    6.2843    3.2404    0.0000 C   0  0  0  0  0  0  0  0  0  0  0  0
    4.6313    5.0825    0.0000 C   0  0  0  0  0  0  0  0  0  0  0  0
    5.9896    4.6386    0.0000 C   0  0  0  0  0  0  0  0  0  0  0  0
    7.1300    1.2281    0.0000 C   0  0  0  0  0  0  0  0  0  0  0  0
    4.8877    5.8668    0.0000 C   0  0  0  0  0  0  0  0  0  0  0  0
    6.2459    5.4229    0.0000 C   0  0  0  0  0  0  0  0  0  0  0  0
   11.0252   -5.2527    0.0000 C   0  0  0  0  0  0  0  0  0  0  0  0
    9.1159   -4.1948    0.0000 C   0  0  0  0  0  0  0  0  0  0  0  0
    5.6949    6.0369    0.0000 C   0  0  0  0  0  0  0  0  0  0  0  0
   10.4742   -4.6386    0.0000 C   0  0  0  0  0  0  0  0  0  0  0  0
   11.8324   -5.0825    0.0000 C   0  0  0  0  0  0  0  0  0  0  0  0
   10.7688   -6.0369    0.0000 C   0  0  0  0  0  0  0  0  0  0  0  0
  1 29  1  0  0  0  0
  1 46  1  0  0  0  0
  2 22  2  0  0  0  0
  3 25  2  0  0  0  0
  4 32  2  0  0  0  0
  5 34  2  0  0  0  0
  6 42  1  0  0  0  0
  7 43  2  0  0  0  0
  8 42  2  0  0  0  0
  9 50  1  0  0  0  0
  9 52  1  0  0  0  0
 10 50  2  0  0  0  0
 20 11  1  6  0  0  0
 11 22  1  0  0  0  0
 18 12  1  1  0  0  0
 12 34  1  0  0  0  0
 13 25  1  0  0  0  0
 26 13  1  1  0  0  0
 14 27  1  0  0  0  0
 14 28  1  0  0  0  0
 15 32  1  0  0  0  0
 33 15  1  1  0  0  0
 16 40  1  0  0  0  0
 16 50  1  0  0  0  0
 17 43  1  0  0  0  0
 18 19  1  0  0  0  0
 18 22  1  0  0  0  0
 19 21  1  0  0  0  0
 20 23  1  0  0  0  0
 20 25  1  0  0  0  0
 21 24  1  0  0  0  0
 21 28  2  0  0  0  0
 23 29  1  0  0  0  0
 24 27  1  0  0  0  0
 24 31  2  0  0  0  0
 26 30  1  0  0  0  0
 26 32  1  0  0  0  0
 27 35  2  0  0  0  0
 30 42  1  0  0  0  0
 31 38  1  0  0  0  0
 33 37  1  0  0  0  0
 33 43  1  0  0  0  0
 34 36  1  0  0  0  0
 35 39  1  0  0  0  0
 36 40  1  0  0  0  0
 37 41  1  0  0  0  0
 38 39  2  0  0  0  0
 41 44  2  0  0  0  0
 41 45  1  0  0  0  0
 44 47  1  0  0  0  0
 45 48  2  0  0  0  0
 47 51  2  0  0  0  0
 48 51  1  0  0  0  0
 49 52  1  0  0  0  0
 49 53  1  0  0  0  0
 49 54  1  0  0  0  0
M  END
> <DRUGBANK_ID>
DB00183

> <DRUG_GROUPS>
approved

> <GENERIC_NAME>
Pentagastrin

> <BRANDS>
Peptavlon

> <CHEMICAL_FORMULA>
C37H49N7O9S

> <MOLECULAR_WEIGHT>
767.891

> <EXACT_MASS>
767.331246891

> <IUPAC_NAME>
(3S)-3-{[(1S)-1-carbamoyl-2-phenylethyl]carbamoyl}-3-[(2S)-2-[(2S)-3-(1H-indol-3-yl)-2-(3-{[(2-methylpropoxy)carbonyl]amino}propanamido)propanamido]-4-(methylsulfanyl)butanamido]propanoic acid

> <IUPAC_TRADITIONAL_NAME>
pentagastrin

> <INCHI_IDENTIFIER>
InChI=1S/C37H49N7O9S/c1-22(2)21-53-37(52)39-15-13-31(45)41-29(18-24-20-40-26-12-8-7-11-25(24)26)35(50)42-27(14-16-54-3)34(49)44-30(19-32(46)47)36(51)43-28(33(38)48)17-23-9-5-4-6-10-23/h4-12,20,22,27-30,40H,13-19,21H2,1-3H3,(H2,38,48)(H,39,52)(H,41,45)(H,42,50)(H,43,51)(H,44,49)(H,46,47)/t27-,28-,29-,30-/m0/s1

> <INCHI_KEY>
InChIKey=ALXRNCVIQSDJAO-KRCBVYEFSA-N

> <SMILES>
CSCC[C@H](NC(=O)[C@H](CC1=CNC2=CC=CC=C12)NC(=O)CCNC(=O)OCC(C)C)C(=O)N[C@@H](CC(O)=O)C(=O)N[C@@H](CC1=CC=CC=C1)C(N)=O

> <JCHEM_ACCEPTOR_COUNT>
8

> <JCHEM_DONOR_COUNT>
8

> <JCHEM_ACIDIC_PKA>
4

> <JCHEM_PHYSIOLOGICAL_CHARGE>
-1

> <ALOGPS_LOGP>
1.57

> <JCHEM_LOGP>
1.24

> <ALOGPS_LOGS>
-5.4

> <JCHEM_POLARIZABILITY>
80.96

> <JCHEM_POLAR_SURFACE_AREA>
250.91

> <JCHEM_REFRACTIVITY>
199.97

> <JCHEM_ROTATABLE_BOND_COUNT>
23

> <ALOGPS_SOLUBILITY>
3.09e-03 g/l __ 

$$$$
