
  Mrv0541 04191212152D          

 43 46  0  0  1  0            999 V2000
    6.9377  -11.8238    0.0000 C   0  0  0  0  0  0  0  0  0  0  0  0
    6.2232  -12.2363    0.0000 C   0  0  0  0  0  0  0  0  0  0  0  0
    6.2232  -13.0613    0.0000 C   0  0  0  0  0  0  0  0  0  0  0  0
    6.9377  -13.4739    0.0000 C   0  0  0  0  0  0  0  0  0  0  0  0
    7.6522  -13.0613    0.0000 C   0  0  0  0  0  0  0  0  0  0  0  0
    7.6522  -12.2363    0.0000 C   0  0  0  0  0  0  0  0  0  0  0  0
    8.3666  -11.8238    0.0000 C   0  0  2  0  0  0  0  0  0  0  0  0
    8.3666  -13.4739    0.0000 C   0  0  0  0  0  0  0  0  0  0  0  0
    9.0811  -13.0613    0.0000 C   0  0  2  0  0  0  0  0  0  0  0  0
    9.0811  -12.2363    0.0000 C   0  0  0  0  0  0  0  0  0  0  0  0
    9.0811  -10.5863    0.0000 C   0  0  0  0  0  0  0  0  0  0  0  0
    8.3666  -10.9988    0.0000 C   0  0  0  0  0  0  0  0  0  0  0  0
    9.7956  -11.8238    0.0000 C   0  0  1  0  0  0  0  0  0  0  0  0
    9.7956  -10.9988    0.0000 C   0  0  1  0  0  0  0  0  0  0  0  0
   10.5802  -10.7438    0.0000 C   0  0  2  0  0  0  0  0  0  0  0  0
   10.5802  -12.0787    0.0000 C   0  0  0  0  0  0  0  0  0  0  0  0
   11.0651  -11.4113    0.0000 C   0  0  0  0  0  0  0  0  0  0  0  0
    5.5087  -13.4738    0.0000 O   0  0  0  0  0  0  0  0  0  0  0  0
    8.3666  -12.6488    0.0000 H   0  0  0  0  0  0  0  0  0  0  0  0
    9.7956  -12.6488    0.0000 H   0  0  0  0  0  0  0  0  0  0  0  0
    9.7956  -13.4738    0.0000 C   0  0  0  0  0  0  0  0  0  0  0  0
   10.5100  -13.0613    0.0000 C   0  0  0  0  0  0  0  0  0  0  0  0
   11.2245  -13.4738    0.0000 C   0  0  0  0  0  0  0  0  0  0  0  0
   11.9390  -13.0613    0.0000 C   0  0  0  0  0  0  0  0  0  0  0  0
   12.6534  -13.4738    0.0000 C   0  0  0  0  0  0  0  0  0  0  0  0
   13.3679  -13.0613    0.0000 C   0  0  0  0  0  0  0  0  0  0  0  0
   14.0824  -13.4738    0.0000 C   0  0  0  0  0  0  0  0  0  0  0  0
   14.7969  -13.0613    0.0000 C   0  0  0  0  0  0  0  0  0  0  0  0
   15.5113  -13.4738    0.0000 C   0  0  0  0  0  0  0  0  0  0  0  0
   16.2258  -13.0613    0.0000 S   0  0  0  0  0  0  0  0  0  0  0  0
   16.2258  -12.2363    0.0000 O   0  0  0  0  0  0  0  0  0  0  0  0
   16.9403  -13.4738    0.0000 C   0  0  0  0  0  0  0  0  0  0  0  0
   17.6547  -13.0613    0.0000 C   0  0  0  0  0  0  0  0  0  0  0  0
   18.3692  -13.4738    0.0000 C   0  0  0  0  0  0  0  0  0  0  0  0
   19.0837  -13.0613    0.0000 C   0  0  0  0  0  0  0  0  0  0  0  0
   19.7982  -13.4738    0.0000 C   0  0  0  0  0  0  0  0  0  0  0  0
   18.6712  -12.3469    0.0000 F   0  0  0  0  0  0  0  0  0  0  0  0
   19.4962  -12.3469    0.0000 F   0  0  0  0  0  0  0  0  0  0  0  0
   20.5126  -13.0613    0.0000 F   0  0  0  0  0  0  0  0  0  0  0  0
   19.7982  -14.2988    0.0000 F   0  0  0  0  0  0  0  0  0  0  0  0
   20.3815  -14.0572    0.0000 F   0  0  0  0  0  0  0  0  0  0  0  0
   10.7937   -9.9470    0.0000 O   0  0  0  0  0  0  0  0  0  0  0  0
    9.7956  -10.1738    0.0000 C   0  0  0  0  0  0  0  0  0  0  0  0
  1  2  1  0  0  0  0
  2  3  2  0  0  0  0
  3  4  1  0  0  0  0
  4  5  2  0  0  0  0
  1  6  2  0  0  0  0
  7  6  1  0  0  0  0
  6  5  1  0  0  0  0
  5  8  1  0  0  0  0
  8  9  1  0  0  0  0
  9 10  1  0  0  0  0
  7 12  1  0  0  0  0
  7 10  1  0  0  0  0
 10 13  1  0  0  0  0
 11 12  1  0  0  0  0
 11 14  1  0  0  0  0
 15 14  1  0  0  0  0
 14 13  1  0  0  0  0
 13 16  1  0  0  0  0
 16 17  1  0  0  0  0
 15 17  1  0  0  0  0
  3 18  1  0  0  0  0
  7 19  1  6  0  0  0
 13 20  1  6  0  0  0
  9 21  1  6  0  0  0
 21 22  1  0  0  0  0
 22 23  1  0  0  0  0
 23 24  1  0  0  0  0
 24 25  1  0  0  0  0
 25 26  1  0  0  0  0
 26 27  1  0  0  0  0
 27 28  1  0  0  0  0
 28 29  1  0  0  0  0
 29 30  1  0  0  0  0
 30 31  2  0  0  0  0
 30 32  1  0  0  0  0
 32 33  1  0  0  0  0
 33 34  1  0  0  0  0
 34 35  1  0  0  0  0
 35 36  1  0  0  0  0
 35 37  1  0  0  0  0
 35 38  1  0  0  0  0
 36 39  1  0  0  0  0
 36 40  1  0  0  0  0
 36 41  1  0  0  0  0
 15 42  1  1  0  0  0
 14 43  1  1  0  0  0
M  END
> <DRUGBANK_ID>
DB00947

> <DRUG_GROUPS>
approved; investigational

> <GENERIC_NAME>
Fulvestrant

> <SYNONYMS>


> <BRANDS>


> <CHEMICAL_FORMULA>
C32H47F5O3S

> <MOLECULAR_WEIGHT>
606.771

> <EXACT_MASS>
606.316607085

> <IUPAC_NAME>
(1S,9R,11S,14S,15S)-15-methyl-9-{9-[(4,4,5,5,5-pentafluoropentane)sulfinyl]nonyl}tetracyclo[8.7.0.0^{2,7}.0^{11,15}]heptadeca-2(7),3,5-triene-5,14-diol

> <IUPAC_TRADITIONAL_NAME>
(1S,9R,11S,14S,15S)-15-methyl-9-[9-(4,4,5,5,5-pentafluoropentanesulfinyl)nonyl]tetracyclo[8.7.0.0^{2,7}.0^{11,15}]heptadeca-2(7),3,5-triene-5,14-diol

> <INCHI_IDENTIFIER>
InChI=1S/C32H47F5O3S/c1-30-17-15-26-25-12-11-24(38)21-23(25)20-22(29(26)27(30)13-14-28(30)39)10-7-5-3-2-4-6-8-18-41(40)19-9-16-31(33,34)32(35,36)37/h11-12,21-22,26-29,38-39H,2-10,13-20H2,1H3/t22-,26-,27+,28+,29?,30+,41?/m1/s1

> <INCHI_KEY>
InChIKey=VWUXBMIQPBEWFH-LQKBAPIOSA-N

> <SMILES>
[H][C@@]12CC[C@H](O)[C@@]1(C)CC[C@@]1([H])C2[C@H](CCCCCCCCCS(=O)CCCC(F)(F)C(F)(F)F)CC2=CC(O)=CC=C12

> <JCHEM_ACCEPTOR_COUNT>
3

> <JCHEM_DONOR_COUNT>
2

> <JCHEM_ACIDIC_PKA>
10.32

> <JCHEM_BASIC_PKA>
-0.88

> <JCHEM_PHYSIOLOGICAL_CHARGE>
0

> <ALOGPS_LOGP>
6.54

> <JCHEM_LOGP>
7.57

> <ALOGPS_LOGS>
-5

> <JCHEM_POLARIZABILITY>
65.64

> <JCHEM_POLAR_SURFACE_AREA>
57.53

> <JCHEM_REFRACTIVITY>
155.34

> <JCHEM_ROTATABLE_BOND_COUNT>
15

> <ALOGPS_SOLUBILITY>
6.72e-03 g/l __ 

$$$$
