590
  Mrv0541 02231214472D          

 33 37  0  0  1  0            999 V2000
    3.8490    1.5714    0.0000 O   0  0  0  0  0  0  0  0  0  0  0  0
    3.8490   -0.0784    0.0000 O   0  0  0  0  0  0  0  0  0  0  0  0
    5.2777    2.3963    0.0000 O   0  0  0  0  0  0  0  0  0  0  0  0
   11.7615    0.3540    0.0000 O   0  0  0  0  0  0  0  0  0  0  0  0
   11.7615   -1.3356    0.0000 O   0  0  0  0  0  0  0  0  0  0  0  0
    5.9921    1.1589    0.0000 N   0  0  0  0  0  0  0  0  0  0  0  0
    7.4209    0.3341    0.0000 N   0  0  0  0  0  0  0  0  0  0  0  0
    8.8496    0.3341    0.0000 N   0  0  0  0  0  0  0  0  0  0  0  0
    8.1352   -0.9033    0.0000 N   0  0  0  0  0  0  0  0  0  0  0  0
    8.8496   -2.1406    0.0000 N   0  0  0  0  0  0  0  0  0  0  0  0
    6.7064    1.5714    0.0000 C   0  0  0  0  0  0  0  0  0  0  0  0
    5.9921    0.3341    0.0000 C   0  0  0  0  0  0  0  0  0  0  0  0
    7.4209    1.1589    0.0000 C   0  0  0  0  0  0  0  0  0  0  0  0
    6.7064   -0.0784    0.0000 C   0  0  0  0  0  0  0  0  0  0  0  0
    5.2777    1.5714    0.0000 C   0  0  0  0  0  0  0  0  0  0  0  0
    4.5634    1.1589    0.0000 C   0  0  0  0  0  0  0  0  0  0  0  0
    8.1352   -0.0784    0.0000 C   0  0  0  0  0  0  0  0  0  0  0  0
    4.5634    0.3341    0.0000 C   0  0  0  0  0  0  0  0  0  0  0  0
    3.1346    1.1589    0.0000 C   0  0  0  0  0  0  0  0  0  0  0  0
    9.5639   -0.0784    0.0000 C   0  0  0  0  0  0  0  0  0  0  0  0
    3.1346    0.3341    0.0000 C   0  0  0  0  0  0  0  0  0  0  0  0
    9.5639   -0.9033    0.0000 C   0  0  0  0  0  0  0  0  0  0  0  0
    8.8496   -1.3157    0.0000 C   0  0  0  0  0  0  0  0  0  0  0  0
   10.3014    0.3628    0.0000 C   0  0  0  0  0  0  0  0  0  0  0  0
    2.3972    1.6001    0.0000 C   0  0  0  0  0  0  0  0  0  0  0  0
   10.3014   -1.3443    0.0000 C   0  0  0  0  0  0  0  0  0  0  0  0
    2.3972   -0.1070    0.0000 C   0  0  0  0  0  0  0  0  0  0  0  0
   11.0487   -0.0612    0.0000 C   0  0  0  0  0  0  0  0  0  0  0  0
   11.0487   -0.9204    0.0000 C   0  0  0  0  0  0  0  0  0  0  0  0
    1.6498    1.1761    0.0000 C   0  0  0  0  0  0  0  0  0  0  0  0
    1.6498    0.3170    0.0000 C   0  0  0  0  0  0  0  0  0  0  0  0
   11.7584    1.1788    0.0000 C   0  0  0  0  0  0  0  0  0  0  0  0
   12.4775   -0.9260    0.0000 C   0  0  0  0  0  0  0  0  0  0  0  0
  1 16  1  0  0  0  0
  1 19  1  0  0  0  0
  2 18  1  0  0  0  0
  2 21  1  0  0  0  0
  3 15  2  0  0  0  0
  4 28  1  0  0  0  0
  4 32  1  0  0  0  0
  5 29  1  0  0  0  0
  5 33  1  0  0  0  0
  6 11  1  0  0  0  0
  6 12  1  0  0  0  0
  6 15  1  0  0  0  0
  7 13  1  0  0  0  0
  7 14  1  0  0  0  0
  7 17  1  0  0  0  0
  8 17  2  0  0  0  0
  8 20  1  0  0  0  0
  9 17  1  0  0  0  0
  9 23  2  0  0  0  0
 10 23  1  0  0  0  0
 11 13  1  0  0  0  0
 12 14  1  0  0  0  0
 15 16  1  0  0  0  0
 16 18  1  0  0  0  0
 19 21  1  0  0  0  0
 19 25  2  0  0  0  0
 20 22  1  0  0  0  0
 20 24  2  0  0  0  0
 21 27  2  0  0  0  0
 22 23  1  0  0  0  0
 22 26  2  0  0  0  0
 24 28  1  0  0  0  0
 25 30  1  0  0  0  0
 26 29  1  0  0  0  0
 27 31  1  0  0  0  0
 28 29  2  0  0  0  0
 30 31  2  0  0  0  0
M  END
> <DRUGBANK_ID>
DB00590

> <DRUG_GROUPS>
approved

> <GENERIC_NAME>
Doxazosin

> <SYNONYMS>


> <BRANDS>
Alfadil; Cardenalin; Cardular; Cardura; Cardura XL; Cardura-1; Cardura-2; Cardura-4; Carduran; Diblocin; Normothen; Supressin

> <CHEMICAL_FORMULA>
C23H25N5O5

> <MOLECULAR_WEIGHT>
451.4751

> <EXACT_MASS>
451.185568935

> <IUPAC_NAME>
2-{4-[(2,3-dihydro-1,4-benzodioxin-2-yl)carbonyl]piperazin-1-yl}-6,7-dimethoxyquinazolin-4-amine

> <IUPAC_TRADITIONAL_NAME>
doxazosin

> <INCHI_IDENTIFIER>
InChI=1S/C23H25N5O5/c1-30-18-11-14-15(12-19(18)31-2)25-23(26-21(14)24)28-9-7-27(8-10-28)22(29)20-13-32-16-5-3-4-6-17(16)33-20/h3-6,11-12,20H,7-10,13H2,1-2H3,(H2,24,25,26)

> <INCHI_KEY>
InChIKey=RUZYUOTYCVRMRZ-UHFFFAOYSA-N

> <SMILES>
COC1=C(OC)C=C2C(N)=NC(=NC2=C1)N1CCN(CC1)C(=O)C1COC2=CC=CC=C2O1

> <JCHEM_ACCEPTOR_COUNT>
9

> <JCHEM_DONOR_COUNT>
1

> <JCHEM_ACIDIC_PKA>
12.67

> <JCHEM_BASIC_PKA>
7.24

> <JCHEM_PHYSIOLOGICAL_CHARGE>
1

> <ALOGPS_LOGP>
2.53

> <JCHEM_LOGP>
2.14

> <ALOGPS_LOGS>
-2.8

> <JCHEM_POLARIZABILITY>
46.63

> <JCHEM_POLAR_SURFACE_AREA>
112.27

> <JCHEM_REFRACTIVITY>
121.64

> <JCHEM_ROTATABLE_BOND_COUNT>
4

> <ALOGPS_SOLUBILITY>
7.90e-01 g/l __ 

$$$$
