143
  Mrv0541 02231214282D          

 20 19  0  0  1  0            999 V2000
    6.3799   -1.1096    0.0000 S   0  0  0  0  0  0  0  0  0  0  0  0
    5.6655   -0.6971    0.0000 O   0  0  0  0  0  0  0  0  0  0  0  0
    7.8089    1.3654    0.0000 O   0  0  0  0  0  0  0  0  0  0  0  0
    2.0930    0.5404    0.0000 O   0  0  0  0  0  0  0  0  0  0  0  0
    2.8075   -0.6971    0.0000 O   0  0  0  0  0  0  0  0  0  0  0  0
   10.6668    0.5404    0.0000 O   0  0  0  0  0  0  0  0  0  0  0  0
    9.9524   -0.6971    0.0000 O   0  0  0  0  0  0  0  0  0  0  0  0
    6.3799    0.5404    0.0000 N   0  0  0  0  0  0  0  0  0  0  0  0
    3.5220    1.3654    0.0000 N   0  0  0  0  0  0  0  0  0  0  0  0
    8.5234    0.1279    0.0000 N   0  0  0  0  0  0  0  0  0  0  0  0
    4.2365    0.1279    0.0000 C   0  0  0  0  0  0  0  0  0  0  0  0
    4.9509    0.5404    0.0000 C   0  0  0  0  0  0  0  0  0  0  0  0
    7.0944    0.1279    0.0000 C   0  0  1  0  0  0  0  0  0  0  0  0
    3.5220    0.5404    0.0000 C   0  0  1  0  0  0  0  0  0  0  0  0
    5.6655    0.1279    0.0000 C   0  0  0  0  0  0  0  0  0  0  0  0
    7.0944   -0.6971    0.0000 C   0  0  0  0  0  0  0  0  0  0  0  0
    7.8089    0.5404    0.0000 C   0  0  0  0  0  0  0  0  0  0  0  0
    2.8075    0.1279    0.0000 C   0  0  0  0  0  0  0  0  0  0  0  0
    9.2379    0.5404    0.0000 C   0  0  0  0  0  0  0  0  0  0  0  0
    9.9524    0.1279    0.0000 C   0  0  0  0  0  0  0  0  0  0  0  0
  1 16  1  0  0  0  0
  2 15  2  0  0  0  0
  3 17  2  0  0  0  0
  4 18  1  0  0  0  0
  5 18  2  0  0  0  0
  6 20  1  0  0  0  0
  7 20  2  0  0  0  0
 13  8  1  6  0  0  0
  8 15  1  0  0  0  0
 14  9  1  1  0  0  0
 10 17  1  0  0  0  0
 10 19  1  0  0  0  0
 11 12  1  0  0  0  0
 11 14  1  0  0  0  0
 12 15  1  0  0  0  0
 13 16  1  0  0  0  0
 13 17  1  0  0  0  0
 14 18  1  0  0  0  0
 19 20  1  0  0  0  0
M  END
> <DRUGBANK_ID>
DB00143

> <DRUG_GROUPS>
approved; nutraceutical

> <GENERIC_NAME>
Glutathione

> <SYNONYMS>
5-L-Glutamyl-L-cysteinylglycine; gamma-L-Glutamyl-L-cysteinyl-glycine; Glutathione-SH; GSH; N-(N-gamma-L-Glutamyl-L-cysteinyl)glycine

> <BRANDS>
Isethion

> <CHEMICAL_FORMULA>
C10H17N3O6S

> <MOLECULAR_WEIGHT>
307.323

> <EXACT_MASS>
307.083805981

> <IUPAC_NAME>
(2S)-2-amino-4-{[(1R)-1-[(carboxymethyl)carbamoyl]-2-sulfanylethyl]carbamoyl}butanoic acid

> <IUPAC_TRADITIONAL_NAME>
(2S)-2-amino-4-{[(1R)-1-(carboxymethylcarbamoyl)-2-sulfanylethyl]carbamoyl}butanoic acid

> <INCHI_IDENTIFIER>
InChI=1S/C10H17N3O6S/c11-5(10(18)19)1-2-7(14)13-6(4-20)9(17)12-3-8(15)16/h5-6,20H,1-4,11H2,(H,12,17)(H,13,14)(H,15,16)(H,18,19)/t5-,6-/m0/s1

> <INCHI_KEY>
InChIKey=RWSXRVCMGQZWBV-WDSKDSINSA-N

> <SMILES>
N[C@@H](CCC(=O)N[C@@H](CS)C(=O)NCC(O)=O)C(O)=O

> <JCHEM_ACCEPTOR_COUNT>
7

> <JCHEM_DONOR_COUNT>
6

> <JCHEM_ACIDIC_PKA>
1.94

> <JCHEM_BASIC_PKA>
9.22

> <JCHEM_PHYSIOLOGICAL_CHARGE>
-1

> <ALOGPS_LOGP>
-2.7

> <JCHEM_LOGP>
-4.9

> <ALOGPS_LOGS>
-2.5

> <JCHEM_POLARIZABILITY>
29.11

> <JCHEM_POLAR_SURFACE_AREA>
158.82

> <JCHEM_REFRACTIVITY>
69.11

> <JCHEM_ROTATABLE_BOND_COUNT>
9

> <ALOGPS_SOLUBILITY>
8.79e-01 g/l __ 

$$$$
