60754
  Mrv0541 02231214322D          

 31 28  0  0  1  0            999 V2000
    1.1575    2.4751    0.0000 Gd   0  1  0  0  0  0  0  0  0  0  0  0
    1.8720    2.0625    0.0000 O    0  5  0  0  0  0  0  0  0  0  0  0
    2.5864    3.3001    0.0000 O    0  0  0  0  0  0  0  0  0  0  0  0
    7.5879    1.2375    0.0000 O    0  0  0  0  0  0  0  0  0  0  0  0
    1.8720    3.7126    0.0000 O    0  0  0  0  0  0  0  0  0  0  0  0
    5.4444    0.0000    0.0000 O    0  5  0  0  0  0  0  0  0  0  0  0
    4.7299    6.1876    0.0000 O    0  5  0  0  0  0  0  0  0  0  0  0
    4.7299    1.2375    0.0000 O    0  0  0  0  0  0  0  0  0  0  0  0
    3.3009    6.1876    0.0000 O    0  0  0  0  0  0  0  0  0  0  0  0
    4.7299    7.8377    0.0000 O    0  0  0  0  0  0  0  0  0  0  0  0
    4.0154    2.4751    0.0000 N    0  0  0  0  0  0  0  0  0  0  0  0
    6.1588    2.0625    0.0000 N    0  0  0  0  0  0  0  0  0  0  0  0
    3.3009    4.5376    0.0000 N    0  0  0  0  0  0  0  0  0  0  0  0
    1.1575    4.9501    0.0000 N    0  0  0  0  0  0  0  0  0  0  0  0
    8.3023    2.4751    0.0000 N    0  0  0  0  0  0  0  0  0  0  0  0
    4.7299    2.0625    0.0000 C    0  0  0  0  0  0  0  0  0  0  0  0
    4.0154    3.3001    0.0000 C    0  0  0  0  0  0  0  0  0  0  0  0
    5.4444    2.4751    0.0000 C    0  0  0  0  0  0  0  0  0  0  0  0
    3.3009    3.7126    0.0000 C    0  0  0  0  0  0  0  0  0  0  0  0
    3.3009    2.0625    0.0000 C    0  0  0  0  0  0  0  0  0  0  0  0
    6.8734    2.4751    0.0000 C    0  0  0  0  0  0  0  0  0  0  0  0
    2.5864    4.9501    0.0000 C    0  0  0  0  0  0  0  0  0  0  0  0
    6.1588    1.2375    0.0000 C    0  0  0  0  0  0  0  0  0  0  0  0
    4.0154    4.9501    0.0000 C    0  0  0  0  0  0  0  0  0  0  0  0
    2.5864    2.4751    0.0000 C    0  0  0  0  0  0  0  0  0  0  0  0
    1.8720    4.5376    0.0000 C    0  0  0  0  0  0  0  0  0  0  0  0
    7.5879    2.0625    0.0000 C    0  0  0  0  0  0  0  0  0  0  0  0
    5.4444    0.8250    0.0000 C    0  0  0  0  0  0  0  0  0  0  0  0
    4.0154    5.7751    0.0000 C    0  0  0  0  0  0  0  0  0  0  0  0
    0.4430    4.5376    0.0000 C    0  0  0  0  0  0  0  0  0  0  0  0
    9.0168    2.0625    0.0000 C    0  0  0  0  0  0  0  0  0  0  0  0
  2 25  1  0  0  0  0
  3 25  2  0  0  0  0
  4 27  2  0  0  0  0
  5 26  2  0  0  0  0
  6 28  1  0  0  0  0
  7 29  1  0  0  0  0
  8 28  2  0  0  0  0
  9 29  2  0  0  0  0
 11 16  1  0  0  0  0
 11 17  1  0  0  0  0
 11 20  1  0  0  0  0
 12 18  1  0  0  0  0
 12 21  1  0  0  0  0
 12 23  1  0  0  0  0
 13 19  1  0  0  0  0
 13 22  1  0  0  0  0
 13 24  1  0  0  0  0
 14 26  1  0  0  0  0
 14 30  1  0  0  0  0
 15 27  1  0  0  0  0
 15 31  1  0  0  0  0
 16 18  1  0  0  0  0
 17 19  1  0  0  0  0
 20 25  1  0  0  0  0
 21 27  1  0  0  0  0
 22 26  1  0  0  0  0
 23 28  1  0  0  0  0
 24 29  1  0  0  0  0
M  END
> <DRUGBANK_ID>
DB00225

> <DRUG_GROUPS>
approved

> <GENERIC_NAME>
Gadodiamide

> <SALTS>
Gadodiamide hydrate

> <BRANDS>
Omniscan

> <CHEMICAL_FORMULA>
C16H28GdN5O9

> <MOLECULAR_WEIGHT>
591.67

> <EXACT_MASS>
592.112803052

> <IUPAC_NAME>
gadolinium(3+) ion 2-[bis({2-[(carboxylatomethyl)[(methylcarbamoyl)methyl]amino]ethyl})amino]acetate hydrate

> <IUPAC_TRADITIONAL_NAME>
gadolinium(3+) 2-[bis({2-[(carboxylatomethyl)[(methylcarbamoyl)methyl]amino]ethyl})amino]acetate hydrate

> <INCHI_IDENTIFIER>
InChI=1S/C16H29N5O8.Gd.H2O/c1-17-12(22)7-20(10-15(26)27)5-3-19(9-14(24)25)4-6-21(11-16(28)29)8-13(23)18-2;;/h3-11H2,1-2H3,(H,17,22)(H,18,23)(H,24,25)(H,26,27)(H,28,29);;1H2/q;+3;/p-3

> <INCHI_KEY>
InChIKey=XPCLDSMKWNNKOM-UHFFFAOYSA-K

> <SMILES>
O.[Gd+3].CNC(=O)CN(CCN(CCN(CC([O-])=O)CC(=O)NC)CC([O-])=O)CC([O-])=O

> <JCHEM_ACCEPTOR_COUNT>
11

> <JCHEM_DONOR_COUNT>
2

> <JCHEM_ACIDIC_PKA>
2.36

> <JCHEM_BASIC_PKA>
8.97

> <JCHEM_PHYSIOLOGICAL_CHARGE>
-2

> <JCHEM_LOGP>
-6.9

> <JCHEM_POLARIZABILITY>
39.34

> <JCHEM_POLAR_SURFACE_AREA>
188.31

> <JCHEM_REFRACTIVITY>
132.4

> <JCHEM_ROTATABLE_BOND_COUNT>
16 __ 

$$$$
