2140
  Mrv0541 02231214332D          

 20 20  0  0  0  0            999 V2000
    2.3645    0.4125    0.0000 I   0  0  0  0  0  0  0  0  0  0  0  0
    5.2224    0.4125    0.0000 I   0  0  0  0  0  0  0  0  0  0  0  0
    3.7935   -2.0625    0.0000 I   0  0  0  0  0  0  0  0  0  0  0  0
    5.2224   -2.0625    0.0000 O   0  0  0  0  0  0  0  0  0  0  0  0
    5.9370   -0.8250    0.0000 O   0  0  0  0  0  0  0  0  0  0  0  0
    3.0790   -2.4751    0.0000 O   0  0  0  0  0  0  0  0  0  0  0  0
    5.2224    1.2375    0.0000 O   0  0  0  0  0  0  0  0  0  0  0  0
    2.3645   -1.2375    0.0000 N   0  0  0  0  0  0  0  0  0  0  0  0
    3.7935    1.2375    0.0000 N   0  0  0  0  0  0  0  0  0  0  0  0
    3.0790   -0.8250    0.0000 C   0  0  0  0  0  0  0  0  0  0  0  0
    3.7935    0.4125    0.0000 C   0  0  0  0  0  0  0  0  0  0  0  0
    3.0790    0.0000    0.0000 C   0  0  0  0  0  0  0  0  0  0  0  0
    4.5080   -0.8250    0.0000 C   0  0  0  0  0  0  0  0  0  0  0  0
    4.5080    0.0000    0.0000 C   0  0  0  0  0  0  0  0  0  0  0  0
    3.7935   -1.2375    0.0000 C   0  0  0  0  0  0  0  0  0  0  0  0
    5.2224   -1.2375    0.0000 C   0  0  0  0  0  0  0  0  0  0  0  0
    2.3645   -2.0625    0.0000 C   0  0  0  0  0  0  0  0  0  0  0  0
    4.5080    1.6500    0.0000 C   0  0  0  0  0  0  0  0  0  0  0  0
    1.6500   -2.4751    0.0000 C   0  0  0  0  0  0  0  0  0  0  0  0
    4.5080    2.4751    0.0000 C   0  0  0  0  0  0  0  0  0  0  0  0
  1 12  1  0  0  0  0
  2 14  1  0  0  0  0
  3 15  1  0  0  0  0
  4 16  1  0  0  0  0
  5 16  2  0  0  0  0
  6 17  2  0  0  0  0
  7 18  2  0  0  0  0
  8 10  1  0  0  0  0
  8 17  1  0  0  0  0
  9 11  1  0  0  0  0
  9 18  1  0  0  0  0
 10 12  2  0  0  0  0
 10 15  1  0  0  0  0
 11 12  1  0  0  0  0
 11 14  2  0  0  0  0
 13 14  1  0  0  0  0
 13 15  2  0  0  0  0
 13 16  1  0  0  0  0
 17 19  1  0  0  0  0
 18 20  1  0  0  0  0
M  END
> <DRUGBANK_ID>
DB00271

> <DRUG_GROUPS>
approved

> <GENERIC_NAME>
Diatrizoate

> <SYNONYMS>
3,5-diacetamido-2,4,6-triiodobenzoic acid; Amidotrizoate; Amidotrizoic Acid; Diatrizoic acid

> <SALTS>
Diatrizoate meglumine; Diatrizoate sodium

> <BRANDS>
Angiovist 282; Cardiografin; Gastrografin; Hypaque; Odiston; Renografin 76; Urovison

> <CHEMICAL_FORMULA>
C11H9I3N2O4

> <MOLECULAR_WEIGHT>
613.9136

> <EXACT_MASS>
613.769637046

> <IUPAC_NAME>
3,5-diacetamido-2,4,6-triiodobenzoic acid

> <IUPAC_TRADITIONAL_NAME>
diatrizoate

> <INCHI_IDENTIFIER>
InChI=1S/C11H9I3N2O4/c1-3(17)15-9-6(12)5(11(19)20)7(13)10(8(9)14)16-4(2)18/h1-2H3,(H,15,17)(H,16,18)(H,19,20)

> <INCHI_KEY>
InChIKey=YVPYQUNUQOZFHG-UHFFFAOYSA-N

> <SMILES>
CC(=O)NC1=C(I)C(C(O)=O)=C(I)C(NC(C)=O)=C1I

> <JCHEM_ACCEPTOR_COUNT>
4

> <JCHEM_DONOR_COUNT>
3

> <JCHEM_ACIDIC_PKA>
2.17

> <JCHEM_BASIC_PKA>
-4.2

> <JCHEM_PHYSIOLOGICAL_CHARGE>
-1

> <ALOGPS_LOGP>
2.27

> <JCHEM_LOGP>
2.89

> <ALOGPS_LOGS>
-3.8

> <JCHEM_POLARIZABILITY>
38.43

> <JCHEM_POLAR_SURFACE_AREA>
95.5

> <JCHEM_REFRACTIVITY>
103.13

> <JCHEM_ROTATABLE_BOND_COUNT>
3

> <ALOGPS_SOLUBILITY>
1.07e-01 g/l __ 

$$$$
