508
  Mrv0541 02231214442D          

 24 26  0  0  0  0            999 V2000
    3.6958   -2.3625    0.0000 S   0  0  0  0  0  0  0  0  0  0  0  0
    6.0933   -0.0748    0.0000 F   0  0  0  0  0  0  0  0  0  0  0  0
    6.8906   -1.4436    0.0000 F   0  0  0  0  0  0  0  0  0  0  0  0
    7.1764   -0.3605    0.0000 F   0  0  0  0  0  0  0  0  0  0  0  0
    3.6958   -0.7784    0.0000 N   0  0  0  0  0  0  0  0  0  0  0  0
    2.3240    1.5978    0.0000 N   0  0  0  0  0  0  0  0  0  0  0  0
    3.6958    0.0137    0.0000 C   0  0  0  0  0  0  0  0  0  0  0  0
    3.0099    0.4098    0.0000 C   0  0  0  0  0  0  0  0  0  0  0  0
    4.3818   -1.1744    0.0000 C   0  0  0  0  0  0  0  0  0  0  0  0
    3.0099   -1.1744    0.0000 C   0  0  0  0  0  0  0  0  0  0  0  0
    3.0099    1.2018    0.0000 C   0  0  0  0  0  0  0  0  0  0  0  0
    4.3818   -1.9664    0.0000 C   0  0  0  0  0  0  0  0  0  0  0  0
    3.0099   -1.9664    0.0000 C   0  0  0  0  0  0  0  0  0  0  0  0
    5.0898   -0.7509    0.0000 C   0  0  0  0  0  0  0  0  0  0  0  0
    2.3018   -0.7509    0.0000 C   0  0  0  0  0  0  0  0  0  0  0  0
    5.8075   -1.1579    0.0000 C   0  0  0  0  0  0  0  0  0  0  0  0
    5.0898   -2.3900    0.0000 C   0  0  0  0  0  0  0  0  0  0  0  0
    2.3018   -2.3900    0.0000 C   0  0  0  0  0  0  0  0  0  0  0  0
    5.8075   -1.9830    0.0000 C   0  0  0  0  0  0  0  0  0  0  0  0
    1.5841   -1.1579    0.0000 C   0  0  0  0  0  0  0  0  0  0  0  0
    1.6380    1.2018    0.0000 C   0  0  0  0  0  0  0  0  0  0  0  0
    2.3240    2.3900    0.0000 C   0  0  0  0  0  0  0  0  0  0  0  0
    1.5841   -1.9830    0.0000 C   0  0  0  0  0  0  0  0  0  0  0  0
    6.4920   -0.7592    0.0000 C   0  0  0  0  0  0  0  0  0  0  0  0
  1 12  1  0  0  0  0
  1 13  1  0  0  0  0
  2 24  1  0  0  0  0
  3 24  1  0  0  0  0
  4 24  1  0  0  0  0
  5  7  1  0  0  0  0
  5  9  1  0  0  0  0
  5 10  1  0  0  0  0
  6 11  1  0  0  0  0
  6 21  1  0  0  0  0
  6 22  1  0  0  0  0
  7  8  1  0  0  0  0
  8 11  1  0  0  0  0
  9 12  2  0  0  0  0
  9 14  1  0  0  0  0
 10 13  1  0  0  0  0
 10 15  2  0  0  0  0
 12 17  1  0  0  0  0
 13 18  2  0  0  0  0
 14 16  2  0  0  0  0
 15 20  1  0  0  0  0
 16 19  1  0  0  0  0
 16 24  1  0  0  0  0
 17 19  2  0  0  0  0
 18 23  1  0  0  0  0
 20 23  2  0  0  0  0
M  END
> <DRUGBANK_ID>
DB00508

> <DRUG_GROUPS>
approved

> <GENERIC_NAME>
Triflupromazine

> <SYNONYMS>
Fluopromazine; Triflupromazin; Triflupromazina; Triflupromazine; Triflupromazinum

> <SALTS>
Triflupromazine Hydrochloride

> <BRANDS>
Vesprin

> <CHEMICAL_FORMULA>
C18H19F3N2S

> <MOLECULAR_WEIGHT>
352.417

> <EXACT_MASS>
352.122103923

> <IUPAC_NAME>
dimethyl({3-[2-(trifluoromethyl)-10H-phenothiazin-10-yl]propyl})amine

> <IUPAC_TRADITIONAL_NAME>
triflupromazine

> <INCHI_IDENTIFIER>
InChI=1S/C18H19F3N2S/c1-22(2)10-5-11-23-14-6-3-4-7-16(14)24-17-9-8-13(12-15(17)23)18(19,20)21/h3-4,6-9,12H,5,10-11H2,1-2H3

> <INCHI_KEY>
InChIKey=XSCGXQMFQXDFCW-UHFFFAOYSA-N

> <SMILES>
CN(C)CCCN1C2=CC=CC=C2SC2=C1C=C(C=C2)C(F)(F)F

> <JCHEM_ACCEPTOR_COUNT>
2

> <JCHEM_DONOR_COUNT>
0

> <JCHEM_BASIC_PKA>
9.2

> <JCHEM_PHYSIOLOGICAL_CHARGE>
1

> <ALOGPS_LOGP>
4.95

> <JCHEM_LOGP>
4.81

> <ALOGPS_LOGS>
-5.3

> <JCHEM_POLARIZABILITY>
35.29

> <JCHEM_POLAR_SURFACE_AREA>
6.48

> <JCHEM_REFRACTIVITY>
94.93

> <JCHEM_ROTATABLE_BOND_COUNT>
5

> <ALOGPS_SOLUBILITY>
1.80e-03 g/l __ 

$$$$
