908
  Mrv0541 02231215052D          

 26 29  0  0  1  0            999 V2000
    6.8986    0.0158    0.0000 O   0  0  0  0  0  0  0  0  0  0  0  0
    9.0964    1.2335    0.0000 O   0  0  0  0  0  0  0  0  0  0  0  0
    5.2561   -1.6060    0.0000 N   0  0  0  0  0  0  0  0  0  0  0  0
    6.1841    2.9033    0.0000 N   0  0  0  0  0  0  0  0  0  0  0  0
    4.4592   -1.3925    0.0000 C   0  0  1  0  0  0  0  0  0  0  0  0
    5.4696    0.0158    0.0000 C   0  0  2  0  0  0  0  0  0  0  0  0
    4.6727    0.2294    0.0000 C   0  0  0  0  0  0  0  0  0  0  0  0
    3.0302   -2.2175    0.0000 C   0  0  2  0  0  0  0  0  0  0  0  0
    5.3523   -2.8396    0.0000 C   0  0  0  0  0  0  0  0  0  0  0  0
    3.4427   -2.9320    0.0000 C   0  0  0  0  0  0  0  0  0  0  0  0
    6.0668   -2.4271    0.0000 C   0  0  0  0  0  0  0  0  0  0  0  0
    6.1841    0.4283    0.0000 C   0  0  2  0  0  0  0  0  0  0  0  0
    2.2334   -2.0040    0.0000 C   0  0  0  0  0  0  0  0  0  0  0  0
    6.1841    1.2533    0.0000 C   0  0  0  0  0  0  0  0  0  0  0  0
    1.6500   -2.5874    0.0000 C   0  0  0  0  0  0  0  0  0  0  0  0
    6.8986    1.6658    0.0000 C   0  0  0  0  0  0  0  0  0  0  0  0
    5.4696    1.6658    0.0000 C   0  0  0  0  0  0  0  0  0  0  0  0
    6.8986    2.4908    0.0000 C   0  0  0  0  0  0  0  0  0  0  0  0
    7.6360    1.2248    0.0000 C   0  0  0  0  0  0  0  0  0  0  0  0
    5.4696    2.4908    0.0000 C   0  0  0  0  0  0  0  0  0  0  0  0
    7.6360    2.9320    0.0000 C   0  0  0  0  0  0  0  0  0  0  0  0
    8.3836    1.6487    0.0000 C   0  0  0  0  0  0  0  0  0  0  0  0
    8.3836    2.5081    0.0000 C   0  0  0  0  0  0  0  0  0  0  0  0
    9.8125    1.6432    0.0000 C   0  0  0  0  0  0  0  0  0  0  0  0
    3.8216   -1.2217    0.0000 H   0  0  0  0  0  0  0  0  0  0  0  0
    6.0184   -0.3508    0.0000 H   0  0  0  0  0  0  0  0  0  0  0  0
 12  1  1  6  0  0  0
  2 22  1  0  0  0  0
  2 24  1  0  0  0  0
  3  6  1  0  0  0  0
  3 10  1  0  0  0  0
  3 11  1  0  0  0  0
  4 18  2  0  0  0  0
  4 20  1  0  0  0  0
  5  7  1  0  0  0  0
  5  8  1  0  0  0  0
  5  9  1  0  0  0  0
  5 25  1  1  0  0  0
  6  7  1  0  0  0  0
  6 12  1  0  0  0  0
  6 26  1  1  0  0  0
  8 10  1  0  0  0  0
  8 13  1  6  0  0  0
  9 11  1  0  0  0  0
 12 14  1  0  0  0  0
 13 15  2  0  0  0  0
 14 16  2  0  0  0  0
 14 17  1  0  0  0  0
 16 18  1  0  0  0  0
 16 19  1  0  0  0  0
 17 20  2  0  0  0  0
 18 21  1  0  0  0  0
 19 22  2  0  0  0  0
 21 23  2  0  0  0  0
 22 23  1  0  0  0  0
M  END
> <DRUGBANK_ID>
DB00908

> <DRUG_GROUPS>
approved

> <GENERIC_NAME>
Quinidine

> <SYNONYMS>
(+)-quinidine; Chinidin; CIN-QUIN; Conquinine; Pitayine; Î²-quinine

> <SALTS>
Quinidine Sulfate

> <BRANDS>
Cardioquin; Kinidin; Quin-Release; Quinaglute; Quinalan; Quinicardine; Quinidex

> <CHEMICAL_FORMULA>
C20H24N2O2

> <MOLECULAR_WEIGHT>
324.4168

> <EXACT_MASS>
324.183778022

> <IUPAC_NAME>
(S)-[(2R,4S,5R)-5-ethenyl-1-azabicyclo[2.2.2]octan-2-yl](6-methoxyquinolin-4-yl)methanol

> <IUPAC_TRADITIONAL_NAME>
quinidine

> <INCHI_IDENTIFIER>
InChI=1S/C20H24N2O2/c1-3-13-12-22-9-7-14(13)10-19(22)20(23)16-6-8-21-18-5-4-15(24-2)11-17(16)18/h3-6,8,11,13-14,19-20,23H,1,7,9-10,12H2,2H3/t13-,14-,19+,20-/m0/s1

> <INCHI_KEY>
InChIKey=LOUPRKONTZGTKE-LHHVKLHASA-N

> <SMILES>
[H][C@@]12CCN(C[C@@H]1C=C)[C@]([H])(C2)[C@@H](O)C1=C2C=C(OC)C=CC2=NC=C1

> <JCHEM_ACCEPTOR_COUNT>
4

> <JCHEM_DONOR_COUNT>
1

> <JCHEM_ACIDIC_PKA>
13.89

> <JCHEM_BASIC_PKA>
9.05

> <JCHEM_PHYSIOLOGICAL_CHARGE>
1

> <ALOGPS_LOGP>
2.82

> <JCHEM_LOGP>
2.51

> <ALOGPS_LOGS>
-3

> <JCHEM_POLARIZABILITY>
35.82

> <JCHEM_POLAR_SURFACE_AREA>
45.59

> <JCHEM_REFRACTIVITY>
94.69

> <JCHEM_ROTATABLE_BOND_COUNT>
4

> <ALOGPS_SOLUBILITY>
3.34e-01 g/l __ 

$$$$
