
  Mrv0541 04191212112D          

 14 13  0  0  1  0            999 V2000
    9.6691   -8.1682    0.0000 N   0  0  0  0  0  0  0  0  0  0  0  0
    7.5010   -8.5711    0.0000 N   0  0  0  0  0  0  0  0  0  0  0  0
   11.1080   -9.8373    0.0000 O   0  0  0  0  0  0  0  0  0  0  0  0
    7.5010   -6.9211    0.0000 O   0  0  0  0  0  0  0  0  0  0  0  0
    6.8103   -8.1682    0.0000 C   0  0  2  0  0  0  0  0  0  0  0  0
   10.3789   -8.5902    0.0000 C   0  0  2  0  0  0  0  0  0  0  0  0
    8.2493   -8.1682    0.0000 C   0  0  0  0  0  0  0  0  0  0  0  0
    8.9400   -8.5902    0.0000 C   0  0  0  0  0  0  0  0  0  0  0  0
    6.8103   -7.3432    0.0000 C   0  0  0  0  0  0  0  0  0  0  0  0
   10.3789   -9.4152    0.0000 C   0  0  0  0  0  0  0  0  0  0  0  0
    6.0621   -8.5711    0.0000 C   0  0  0  0  0  0  0  0  0  0  0  0
   11.1080   -8.1682    0.0000 C   0  0  0  0  0  0  0  0  0  0  0  0
    5.3522   -8.1682    0.0000 C   0  0  0  0  0  0  0  0  0  0  0  0
   11.8227   -8.5802    0.0000 C   0  0  0  0  0  0  0  0  0  0  0  0
  6  1  1  0  0  0  0
  8  1  1  0  0  0  0
  7  2  1  0  0  0  0
  5  2  1  0  0  0  0
 10  3  1  0  0  0  0
  9  4  1  0  0  0  0
  5  9  1  1  0  0  0
 11  5  1  0  0  0  0
  6 10  1  1  0  0  0
 12  6  1  0  0  0  0
  8  7  1  0  0  0  0
 13 11  1  0  0  0  0
 12 14  1  0  0  0  0
M  END
> <DRUGBANK_ID>
DB00330

> <DRUG_GROUPS>
approved

> <GENERIC_NAME>
Ethambutol

> <SYNONYMS>
(+)-2,2'-(ethylenediimino)di-1-butanol; (+)-ethambutol; (+)-S,S-ethambutol; EMB; Etambutol; Etambutolo; Ethambutolum; S,S-Ethambutol

> <SALTS>
Ethambutol Hydrochloride

> <BRANDS>
Diambutol; Etibi; Myambutol; Tibutol

> <CHEMICAL_FORMULA>
C10H24N2O2

> <MOLECULAR_WEIGHT>
204.3098

> <EXACT_MASS>
204.183778022

> <IUPAC_NAME>
(2S)-2-[(2-{[(2S)-1-hydroxybutan-2-yl]amino}ethyl)amino]butan-1-ol

> <IUPAC_TRADITIONAL_NAME>
ethambutol

> <INCHI_IDENTIFIER>
InChI=1S/C10H24N2O2/c1-3-9(7-13)11-5-6-12-10(4-2)8-14/h9-14H,3-8H2,1-2H3/t9-,10-/m0/s1

> <INCHI_KEY>
InChIKey=AEUTYOVWOVBAKS-UWVGGRQHSA-N

> <SMILES>
CC[C@@H](CO)NCCN[C@@H](CC)CO

> <JCHEM_ACCEPTOR_COUNT>
4

> <JCHEM_DONOR_COUNT>
4

> <JCHEM_ACIDIC_PKA>
14.82

> <JCHEM_BASIC_PKA>
9.55

> <JCHEM_PHYSIOLOGICAL_CHARGE>
1

> <ALOGPS_LOGP>
-0.12

> <JCHEM_LOGP>
-0.059

> <ALOGPS_LOGS>
-1.4

> <JCHEM_POLARIZABILITY>
24.47

> <JCHEM_POLAR_SURFACE_AREA>
64.52

> <JCHEM_REFRACTIVITY>
57.89

> <JCHEM_ROTATABLE_BOND_COUNT>
9

> <ALOGPS_SOLUBILITY>
7.58e+00 g/l __ 

$$$$
