385
  Mrv0541 02231214382D          

 51 55  0  0  1  0            999 V2000
    5.8496    3.9499    0.0000 F   0  0  0  0  0  0  0  0  0  0  0  0
    7.4994    3.9308    0.0000 F   0  0  0  0  0  0  0  0  0  0  0  0
    6.6841    4.7653    0.0000 F   0  0  0  0  0  0  0  0  0  0  0  0
    7.3460    0.2199    0.0000 O   0  0  0  0  0  0  0  0  0  0  0  0
    5.9171    0.2364    0.0000 O   0  0  0  0  0  0  0  0  0  0  0  0
    6.1792   -2.6044    0.0000 O   0  0  0  0  0  0  0  0  0  0  0  0
    4.5074    1.9028    0.0000 O   0  0  0  0  0  0  0  0  0  0  0  0
    8.7884    0.1913    0.0000 O   0  0  0  0  0  0  0  0  0  0  0  0
    8.7884   -3.1087    0.0000 O   0  0  0  0  0  0  0  0  0  0  0  0
    5.3487   -1.1787    0.0000 O   0  0  0  0  0  0  0  0  0  0  0  0
    4.5293   -2.6108    0.0000 O   0  0  0  0  0  0  0  0  0  0  0  0
   10.2308    0.2199    0.0000 O   0  0  0  0  0  0  0  0  0  0  0  0
   10.2308   -3.1372    0.0000 O   0  0  0  0  0  0  0  0  0  0  0  0
    7.3746    2.6947    0.0000 O   0  0  0  0  0  0  0  0  0  0  0  0
   11.7466    0.2554    0.0000 O   0  0  0  0  0  0  0  0  0  0  0  0
    4.5347   -4.0397    0.0000 O   0  0  0  0  0  0  0  0  0  0  0  0
    5.9458    2.7112    0.0000 N   0  0  0  0  0  0  0  0  0  0  0  0
    7.3365   -0.6051    0.0000 C   0  0  1  0  0  0  0  0  0  0  0  0
    6.5889   -1.8883    0.0000 C   0  0  2  0  0  0  0  0  0  0  0  0
    6.5889   -1.0290    0.0000 C   0  0  0  0  0  0  0  0  0  0  0  0
    7.3365   -2.3123    0.0000 C   0  0  0  0  0  0  0  0  0  0  0  0
    8.0739   -1.0462    0.0000 C   0  0  0  0  0  0  0  0  0  0  0  0
    8.0739   -1.8712    0.0000 C   0  0  0  0  0  0  0  0  0  0  0  0
    6.6363    0.6406    0.0000 C   0  0  0  0  0  0  0  0  0  0  0  0
    5.9362    1.8863    0.0000 C   0  0  0  0  0  0  0  0  0  0  0  0
    6.6459    1.4655    0.0000 C   0  0  0  0  0  0  0  0  0  0  0  0
    5.2171    1.4820    0.0000 C   0  0  0  0  0  0  0  0  0  0  0  0
    5.2075    0.6571    0.0000 C   0  0  0  0  0  0  0  0  0  0  0  0
    5.7639   -1.8916    0.0000 C   0  0  0  0  0  0  0  0  0  0  0  0
    8.7884   -0.6337    0.0000 C   0  0  0  0  0  0  0  0  0  0  0  0
    8.7884   -2.2837    0.0000 C   0  0  0  0  0  0  0  0  0  0  0  0
    9.5029   -1.0462    0.0000 C   0  0  0  0  0  0  0  0  0  0  0  0
    9.5029   -1.8712    0.0000 C   0  0  0  0  0  0  0  0  0  0  0  0
    4.4883    0.2529    0.0000 C   0  0  0  0  0  0  0  0  0  0  0  0
    5.3542   -2.6076    0.0000 C   0  0  0  0  0  0  0  0  0  0  0  0
   10.2404   -0.6051    0.0000 C   0  0  0  0  0  0  0  0  0  0  0  0
   10.2404   -2.3123    0.0000 C   0  0  0  0  0  0  0  0  0  0  0  0
   10.9879   -1.0290    0.0000 C   0  0  0  0  0  0  0  0  0  0  0  0
   10.9879   -1.8883    0.0000 C   0  0  0  0  0  0  0  0  0  0  0  0
    6.6649    3.1154    0.0000 C   0  0  0  0  0  0  0  0  0  0  0  0
   11.7561   -0.5696    0.0000 C   0  0  0  0  0  0  0  0  0  0  0  0
   11.7561   -2.3478    0.0000 C   0  0  0  0  0  0  0  0  0  0  0  0
    6.6745    3.9404    0.0000 C   0  0  0  0  0  0  0  0  0  0  0  0
   12.5347   -1.0111    0.0000 C   0  0  0  0  0  0  0  0  0  0  0  0
   12.5347   -1.9062    0.0000 C   0  0  0  0  0  0  0  0  0  0  0  0
    4.1195   -3.3268    0.0000 C   0  0  0  0  0  0  0  0  0  0  0  0
    3.2945   -3.3300    0.0000 C   0  0  0  0  0  0  0  0  0  0  0  0
    2.8848   -4.0460    0.0000 C   0  0  0  0  0  0  0  0  0  0  0  0
   12.4563    0.6761    0.0000 C   0  0  0  0  0  0  0  0  0  0  0  0
    2.0598   -4.0493    0.0000 C   0  0  0  0  0  0  0  0  0  0  0  0
    1.6500   -4.7653    0.0000 C   0  0  0  0  0  0  0  0  0  0  0  0
  1 43  1  0  0  0  0
  2 43  1  0  0  0  0
  3 43  1  0  0  0  0
 18  4  1  6  0  0  0
  4 24  1  0  0  0  0
  5 24  1  0  0  0  0
  5 28  1  0  0  0  0
 19  6  1  6  0  0  0
  7 27  1  0  0  0  0
  8 30  1  0  0  0  0
  9 31  1  0  0  0  0
 10 29  2  0  0  0  0
 11 35  1  0  0  0  0
 11 46  1  0  0  0  0
 12 36  2  0  0  0  0
 13 37  2  0  0  0  0
 14 40  2  0  0  0  0
 15 41  1  0  0  0  0
 15 49  1  0  0  0  0
 16 46  2  0  0  0  0
 17 25  1  0  0  0  0
 17 40  1  0  0  0  0
 18 20  1  0  0  0  0
 18 22  1  0  0  0  0
 19 20  1  0  0  0  0
 19 21  1  0  0  0  0
 19 29  1  0  0  0  0
 21 23  1  0  0  0  0
 22 23  2  0  0  0  0
 22 30  1  0  0  0  0
 23 31  1  0  0  0  0
 24 26  1  0  0  0  0
 25 26  1  0  0  0  0
 25 27  1  0  0  0  0
 27 28  1  0  0  0  0
 28 34  1  0  0  0  0
 29 35  1  0  0  0  0
 30 32  2  0  0  0  0
 31 33  2  0  0  0  0
 32 33  1  0  0  0  0
 32 36  1  0  0  0  0
 33 37  1  0  0  0  0
 36 38  1  0  0  0  0
 37 39  1  0  0  0  0
 38 39  2  0  0  0  0
 38 41  1  0  0  0  0
 39 42  1  0  0  0  0
 40 43  1  0  0  0  0
 41 44  2  0  0  0  0
 42 45  2  0  0  0  0
 44 45  1  0  0  0  0
 46 47  1  0  0  0  0
 47 48  1  0  0  0  0
 48 50  1  0  0  0  0
 50 51  1  0  0  0  0
M  END
> <DRUGBANK_ID>
DB00385

> <DRUG_GROUPS>
approved

> <GENERIC_NAME>
Valrubicin

> <BRANDS>


> <CHEMICAL_FORMULA>
C34H36F3NO13

> <MOLECULAR_WEIGHT>
723.6437

> <EXACT_MASS>
723.213874858

> <IUPAC_NAME>
2-oxo-2-[(2S,4S)-2,5,12-trihydroxy-4-{[5-hydroxy-6-methyl-4-(trifluoroacetamido)oxan-2-yl]oxy}-7-methoxy-6,11-dioxo-1,2,3,4,6,11-hexahydrotetracen-2-yl]ethyl pentanoate

> <IUPAC_TRADITIONAL_NAME>
2-oxo-2-[(2S,4S)-2,5,12-trihydroxy-4-{[5-hydroxy-6-methyl-4-(trifluoroacetamido)oxan-2-yl]oxy}-7-methoxy-6,11-dioxo-3,4-dihydro-1H-tetracen-2-yl]ethyl pentanoate

> <INCHI_IDENTIFIER>
InChI=1S/C34H36F3NO13/c1-4-5-9-21(40)49-13-20(39)33(47)11-16-24(19(12-33)51-22-10-17(27(41)14(2)50-22)38-32(46)34(35,36)37)31(45)26-25(29(16)43)28(42)15-7-6-8-18(48-3)23(15)30(26)44/h6-8,14,17,19,22,27,41,43,45,47H,4-5,9-13H2,1-3H3,(H,38,46)/t14?,17?,19-,22?,27?,33-/m0/s1

> <INCHI_KEY>
InChIKey=ZOCKGBMQLCSHFP-ZQUOIQDWSA-N

> <SMILES>
CCCCC(=O)OCC(=O)[C@@]1(O)C[C@H](OC2CC(NC(=O)C(F)(F)F)C(O)C(C)O2)C2=C(C1)C(O)=C1C(=O)C3=C(C(=O)C1=C2O)C(OC)=CC=C3

> <JCHEM_ACCEPTOR_COUNT>
12

> <JCHEM_DONOR_COUNT>
5

> <JCHEM_ACIDIC_PKA>
5.39

> <JCHEM_BASIC_PKA>
-3.4

> <JCHEM_PHYSIOLOGICAL_CHARGE>
-1

> <ALOGPS_LOGP>
2.67

> <JCHEM_LOGP>
4.49

> <ALOGPS_LOGS>
-4.3

> <JCHEM_POLARIZABILITY>
68.86

> <JCHEM_POLAR_SURFACE_AREA>
215.22

> <JCHEM_REFRACTIVITY>
168.03

> <JCHEM_ROTATABLE_BOND_COUNT>
12

> <ALOGPS_SOLUBILITY>
3.25e-02 g/l __ 

$$$$
