323
  Mrv0541 02231214362D          

 20 21  0  0  0  0            999 V2000
    5.6655    0.6188    0.0000 O   0  0  0  0  0  0  0  0  0  0  0  0
    2.0930    0.2063    0.0000 O   0  0  0  0  0  0  0  0  0  0  0  0
    2.0930    1.8563    0.0000 O   0  0  0  0  0  0  0  0  0  0  0  0
    4.2365    3.0938    0.0000 O   0  5  0  0  0  0  0  0  0  0  0  0
    2.8075    3.0938    0.0000 O   0  0  0  0  0  0  0  0  0  0  0  0
    3.5220    2.6813    0.0000 N   0  3  0  0  0  0  0  0  0  0  0  0
    4.2365    0.6188    0.0000 C   0  0  0  0  0  0  0  0  0  0  0  0
    4.9509   -0.6188    0.0000 C   0  0  0  0  0  0  0  0  0  0  0  0
    4.9509    0.2063    0.0000 C   0  0  0  0  0  0  0  0  0  0  0  0
    4.2365    1.4438    0.0000 C   0  0  0  0  0  0  0  0  0  0  0  0
    3.5220    0.2063    0.0000 C   0  0  0  0  0  0  0  0  0  0  0  0
    3.5220    1.8563    0.0000 C   0  0  0  0  0  0  0  0  0  0  0  0
    2.8075    0.6188    0.0000 C   0  0  0  0  0  0  0  0  0  0  0  0
    4.9509   -2.2688    0.0000 C   0  0  0  0  0  0  0  0  0  0  0  0
    4.2365   -1.0313    0.0000 C   0  0  0  0  0  0  0  0  0  0  0  0
    5.6655   -1.0313    0.0000 C   0  0  0  0  0  0  0  0  0  0  0  0
    2.8075    1.4438    0.0000 C   0  0  0  0  0  0  0  0  0  0  0  0
    4.2365   -1.8563    0.0000 C   0  0  0  0  0  0  0  0  0  0  0  0
    5.6655   -1.8563    0.0000 C   0  0  0  0  0  0  0  0  0  0  0  0
    4.9509   -3.0938    0.0000 C   0  0  0  0  0  0  0  0  0  0  0  0
  1  9  2  0  0  0  0
  2 13  1  0  0  0  0
  3 17  1  0  0  0  0
  4  6  1  0  0  0  0
  5  6  2  0  0  0  0
  6 12  1  0  0  0  0
  7  9  1  0  0  0  0
  7 10  2  0  0  0  0
  7 11  1  0  0  0  0
  8  9  1  0  0  0  0
  8 15  2  0  0  0  0
  8 16  1  0  0  0  0
 10 12  1  0  0  0  0
 11 13  2  0  0  0  0
 12 17  2  0  0  0  0
 13 17  1  0  0  0  0
 14 18  2  0  0  0  0
 14 19  1  0  0  0  0
 14 20  1  0  0  0  0
 15 18  1  0  0  0  0
 16 19  2  0  0  0  0
M  END
> <DRUGBANK_ID>
DB00323

> <DRUG_GROUPS>
approved; withdrawn

> <GENERIC_NAME>
Tolcapone

> <BRANDS>


> <CHEMICAL_FORMULA>
C14H11NO5

> <MOLECULAR_WEIGHT>
273.2408

> <EXACT_MASS>
273.063722467

> <IUPAC_NAME>
5-[(4-methylphenyl)carbonyl]-3-nitrobenzene-1,2-diol

> <IUPAC_TRADITIONAL_NAME>
tolcapone

> <INCHI_IDENTIFIER>
InChI=1S/C14H11NO5/c1-8-2-4-9(5-3-8)13(17)10-6-11(15(19)20)14(18)12(16)7-10/h2-7,16,18H,1H3

> <INCHI_KEY>
InChIKey=MIQPIUSUKVNLNT-UHFFFAOYSA-N

> <SMILES>
CC1=CC=C(C=C1)C(=O)C1=CC(=C(O)C(O)=C1)[N+]([O-])=O

> <JCHEM_ACCEPTOR_COUNT>
5

> <JCHEM_DONOR_COUNT>
2

> <JCHEM_ACIDIC_PKA>
5.17

> <JCHEM_BASIC_PKA>
-6.4

> <JCHEM_PHYSIOLOGICAL_CHARGE>
-1

> <ALOGPS_LOGP>
2.63

> <JCHEM_LOGP>
3.28

> <ALOGPS_LOGS>
-3.7

> <JCHEM_POLARIZABILITY>
26.44

> <JCHEM_POLAR_SURFACE_AREA>
103.35

> <JCHEM_REFRACTIVITY>
72.96

> <JCHEM_ROTATABLE_BOND_COUNT>
3

> <ALOGPS_SOLUBILITY>
5.69e-02 g/l __ 

$$$$
