1204
  Mrv0541 02231215192D          

 32 34  0  0  0  0            999 V2000
    3.8495   -1.6500    0.0000 O   0  0  0  0  0  0  0  0  0  0  0  0
    3.8495    1.6500    0.0000 O   0  0  0  0  0  0  0  0  0  0  0  0
    2.4070   -1.6785    0.0000 O   0  0  0  0  0  0  0  0  0  0  0  0
    2.4070    1.6785    0.0000 O   0  0  0  0  0  0  0  0  0  0  0  0
    7.3922   -5.4155    0.0000 O   0  0  0  0  0  0  0  0  0  0  0  0
    7.3922    5.4155    0.0000 O   0  0  0  0  0  0  0  0  0  0  0  0
    5.2919   -1.6785    0.0000 N   0  0  0  0  0  0  0  0  0  0  0  0
    5.2919    1.6785    0.0000 N   0  0  0  0  0  0  0  0  0  0  0  0
    6.7016   -3.3450    0.0000 N   0  0  0  0  0  0  0  0  0  0  0  0
    6.7016    3.3450    0.0000 N   0  0  0  0  0  0  0  0  0  0  0  0
    4.5640   -0.4125    0.0000 C   0  0  0  0  0  0  0  0  0  0  0  0
    4.5640    0.4125    0.0000 C   0  0  0  0  0  0  0  0  0  0  0  0
    5.3015   -0.8536    0.0000 C   0  0  0  0  0  0  0  0  0  0  0  0
    5.3015    0.8536    0.0000 C   0  0  0  0  0  0  0  0  0  0  0  0
    3.1350   -0.4125    0.0000 C   0  0  0  0  0  0  0  0  0  0  0  0
    3.1350    0.4125    0.0000 C   0  0  0  0  0  0  0  0  0  0  0  0
    3.8495   -0.8250    0.0000 C   0  0  0  0  0  0  0  0  0  0  0  0
    3.8495    0.8250    0.0000 C   0  0  0  0  0  0  0  0  0  0  0  0
    6.0490   -0.4297    0.0000 C   0  0  0  0  0  0  0  0  0  0  0  0
    6.0490    0.4297    0.0000 C   0  0  0  0  0  0  0  0  0  0  0  0
    6.0015   -2.0993    0.0000 C   0  0  0  0  0  0  0  0  0  0  0  0
    6.0015    2.0993    0.0000 C   0  0  0  0  0  0  0  0  0  0  0  0
    2.3975   -0.8536    0.0000 C   0  0  0  0  0  0  0  0  0  0  0  0
    2.3975    0.8536    0.0000 C   0  0  0  0  0  0  0  0  0  0  0  0
    5.9921   -2.9242    0.0000 C   0  0  0  0  0  0  0  0  0  0  0  0
    5.9921    2.9242    0.0000 C   0  0  0  0  0  0  0  0  0  0  0  0
    1.6500   -0.4297    0.0000 C   0  0  0  0  0  0  0  0  0  0  0  0
    1.6500    0.4297    0.0000 C   0  0  0  0  0  0  0  0  0  0  0  0
    6.6922   -4.1699    0.0000 C   0  0  0  0  0  0  0  0  0  0  0  0
    6.6922    4.1699    0.0000 C   0  0  0  0  0  0  0  0  0  0  0  0
    7.4018   -4.5906    0.0000 C   0  0  0  0  0  0  0  0  0  0  0  0
    7.4018    4.5906    0.0000 C   0  0  0  0  0  0  0  0  0  0  0  0
  1 17  2  0  0  0  0
  2 18  2  0  0  0  0
  3 23  1  0  0  0  0
  4 24  1  0  0  0  0
  5 31  1  0  0  0  0
  6 32  1  0  0  0  0
  7 13  1  0  0  0  0
  7 21  1  0  0  0  0
  8 14  1  0  0  0  0
  8 22  1  0  0  0  0
  9 25  1  0  0  0  0
  9 29  1  0  0  0  0
 10 26  1  0  0  0  0
 10 30  1  0  0  0  0
 11 12  1  0  0  0  0
 11 13  2  0  0  0  0
 11 17  1  0  0  0  0
 12 14  2  0  0  0  0
 12 18  1  0  0  0  0
 13 19  1  0  0  0  0
 14 20  1  0  0  0  0
 15 16  1  0  0  0  0
 15 17  1  0  0  0  0
 15 23  2  0  0  0  0
 16 18  1  0  0  0  0
 16 24  2  0  0  0  0
 19 20  2  0  0  0  0
 21 25  1  0  0  0  0
 22 26  1  0  0  0  0
 23 27  1  0  0  0  0
 24 28  1  0  0  0  0
 27 28  2  0  0  0  0
 29 31  1  0  0  0  0
 30 32  1  0  0  0  0
M  END
> <DRUGBANK_ID>
DB01204

> <DRUG_GROUPS>
approved; investigational

> <GENERIC_NAME>
Mitoxantrone

> <SALTS>
Mitoxantrone hydrochloride

> <BRANDS>
Novantrone

> <CHEMICAL_FORMULA>
C22H28N4O6

> <MOLECULAR_WEIGHT>
444.4809

> <EXACT_MASS>
444.200884648

> <IUPAC_NAME>
1,4-dihydroxy-5,8-bis({2-[(2-hydroxyethyl)amino]ethyl}amino)-9,10-dihydroanthracene-9,10-dione

> <IUPAC_TRADITIONAL_NAME>
mitoxantrone

> <INCHI_IDENTIFIER>
InChI=1S/C22H28N4O6/c27-11-9-23-5-7-25-13-1-2-14(26-8-6-24-10-12-28)18-17(13)21(31)19-15(29)3-4-16(30)20(19)22(18)32/h1-4,23-30H,5-12H2

> <INCHI_KEY>
InChIKey=KKZJGLLVHKMTCM-UHFFFAOYSA-N

> <SMILES>
OCCNCCNC1=C2C(=O)C3=C(O)C=CC(O)=C3C(=O)C2=C(NCCNCCO)C=C1

> <JCHEM_ACCEPTOR_COUNT>
10

> <JCHEM_DONOR_COUNT>
8

> <JCHEM_ACIDIC_PKA>
9.78

> <JCHEM_BASIC_PKA>
9.08

> <JCHEM_PHYSIOLOGICAL_CHARGE>
2

> <ALOGPS_LOGP>
0.91

> <JCHEM_LOGP>
1.19

> <ALOGPS_LOGS>
-2.8

> <JCHEM_POLARIZABILITY>
48.49

> <JCHEM_POLAR_SURFACE_AREA>
163.18

> <JCHEM_REFRACTIVITY>
123.53

> <JCHEM_ROTATABLE_BOND_COUNT>
12

> <ALOGPS_SOLUBILITY>
7.34e-01 g/l __ 

$$$$
