
  Mrv0541 02231215532D          

 64 72  0  0  0  0            999 V2000
   -0.3717    2.7375    0.0000 O   0  0  0  0  0  0  0  0  0  0  0  0
    0.2166    2.1591    0.0000 S   0  0  0  0  0  0  0  0  0  0  0  0
   -0.3618    1.5709    0.0000 O   0  0  0  0  0  0  0  0  0  0  0  0
    0.7950    2.7474    0.0000 O   0  5  0  0  0  0  0  0  0  0  0  0
    0.8049    1.5808    0.0000 C   0  0  0  0  0  0  0  0  0  0  0  0
    1.5999    1.8010    0.0000 C   0  0  0  0  0  0  0  0  0  0  0  0
    2.1882    1.2226    0.0000 C   0  0  0  0  0  0  0  0  0  0  0  0
    1.9815    0.4240    0.0000 C   0  0  0  0  0  0  0  0  0  0  0  0
    1.1864    0.2037    0.0000 C   0  0  0  0  0  0  0  0  0  0  0  0
    0.5981    0.7821    0.0000 C   0  0  0  0  0  0  0  0  0  0  0  0
    2.5698   -0.1544    0.0000 C   0  0  0  0  0  0  0  0  0  0  0  0
    3.2841    0.2583    0.0000 C   0  0  0  0  0  0  0  0  0  0  0  0
    3.9186   -0.2691    0.0000 N   0  0  0  0  0  0  0  0  0  0  0  0
    4.6162    0.1713    0.0000 C   0  0  0  0  0  0  0  0  0  0  0  0
    4.4129    0.9709    0.0000 C   0  0  0  0  0  0  0  0  0  0  0  0
    3.5897    1.0246    0.0000 C   0  0  0  0  0  0  0  0  0  0  0  0
    5.5536   -0.3492    0.0000 C   0  0  0  0  0  0  0  0  0  0  0  0
    6.1320    0.2390    0.0000 C   0  0  0  0  0  0  0  0  0  0  0  0
    5.9118    1.0341    0.0000 C   0  0  0  0  0  0  0  0  0  0  0  0
    6.4901    1.6224    0.0000 C   0  0  0  0  0  0  0  0  0  0  0  0
    7.2888    1.4156    0.0000 C   0  0  0  0  0  0  0  0  0  0  0  0
    7.5091    0.6206    0.0000 C   0  0  0  0  0  0  0  0  0  0  0  0
    6.9307    0.0323    0.0000 C   0  0  0  0  0  0  0  0  0  0  0  0
    7.8672    2.0039    0.0000 S   0  0  0  0  0  0  0  0  0  0  0  0
    8.4456    2.5922    0.0000 O   0  0  0  0  0  0  0  0  0  0  0  0
    8.4555    1.4255    0.0000 O   0  0  0  0  0  0  0  0  0  0  0  0
    7.2789    2.5823    0.0000 O   0  5  0  0  0  0  0  0  0  0  0  0
    5.9663   -1.0636    0.0000 C   0  0  0  0  0  0  0  0  0  0  0  0
    5.4389   -1.6980    0.0000 N   0  0  0  0  0  0  0  0  0  0  0  0
    5.8793   -2.3957    0.0000 C   0  0  0  0  0  0  0  0  0  0  0  0
    6.6789   -2.1924    0.0000 C   0  0  0  0  0  0  0  0  0  0  0  0
    6.7327   -1.3691    0.0000 C   0  0  0  0  0  0  0  0  0  0  0  0
    5.3588   -3.3331    0.0000 C   0  0  0  0  0  0  0  0  0  0  0  0
    5.9471   -3.9115    0.0000 C   0  0  0  0  0  0  0  0  0  0  0  0
    6.7422   -3.6912    0.0000 C   0  0  0  0  0  0  0  0  0  0  0  0
    7.3304   -4.2696    0.0000 C   0  0  0  0  0  0  0  0  0  0  0  0
    7.1237   -5.0683    0.0000 C   0  0  0  0  0  0  0  0  0  0  0  0
    6.3286   -5.2886    0.0000 C   0  0  0  0  0  0  0  0  0  0  0  0
    5.7404   -4.7102    0.0000 C   0  0  0  0  0  0  0  0  0  0  0  0
    7.7120   -5.6467    0.0000 S   0  0  0  0  0  0  0  0  0  0  0  0
    8.3003   -6.2251    0.0000 O   0  0  0  0  0  0  0  0  0  0  0  0
    7.1336   -6.2350    0.0000 O   0  0  0  0  0  0  0  0  0  0  0  0
    8.2904   -5.0584    0.0000 O   0  5  0  0  0  0  0  0  0  0  0  0
    4.6444   -3.7458    0.0000 C   0  0  0  0  0  0  0  0  0  0  0  0
    4.3389   -4.5121    0.0000 C   0  0  0  0  0  0  0  0  0  0  0  0
    3.5157   -4.4584    0.0000 C   0  0  0  0  0  0  0  0  0  0  0  0
    3.3124   -3.6588    0.0000 C   0  0  0  0  0  0  0  0  0  0  0  0
    4.0100   -3.2184    0.0000 N   0  0  0  0  0  0  0  0  0  0  0  0
    2.3749   -3.1383    0.0000 C   0  0  0  0  0  0  0  0  0  0  0  0
    1.7966   -3.7266    0.0000 C   0  0  0  0  0  0  0  0  0  0  0  0
    2.0168   -4.5216    0.0000 C   0  0  0  0  0  0  0  0  0  0  0  0
    1.4384   -5.1099    0.0000 C   0  0  0  0  0  0  0  0  0  0  0  0
    0.6398   -4.9032    0.0000 C   0  0  0  0  0  0  0  0  0  0  0  0
    0.4195   -4.1081    0.0000 C   0  0  0  0  0  0  0  0  0  0  0  0
    0.9979   -3.5198    0.0000 C   0  0  0  0  0  0  0  0  0  0  0  0
    0.0614   -5.4915    0.0000 S   0  0  0  0  0  0  0  0  0  0  0  0
   -0.5170   -6.0797    0.0000 O   0  0  0  0  0  0  0  0  0  0  0  0
   -0.5269   -4.9131    0.0000 O   0  0  0  0  0  0  0  0  0  0  0  0
    0.6497   -6.0698    0.0000 O   0  5  0  0  0  0  0  0  0  0  0  0
    1.9623   -2.4239    0.0000 C   0  0  0  0  0  0  0  0  0  0  0  0
    1.1959   -2.1184    0.0000 C   0  0  0  0  0  0  0  0  0  0  0  0
    1.2497   -1.2951    0.0000 C   0  0  0  0  0  0  0  0  0  0  0  0
    2.0492   -1.0919    0.0000 C   0  0  0  0  0  0  0  0  0  0  0  0
    2.4897   -1.7895    0.0000 N   0  0  0  0  0  0  0  0  0  0  0  0
  1  2  1  0  0  0  0
  2  3  1  0  0  0  0
  2  4  1  0  0  0  0
  2  5  1  0  0  0  0
  5  6  2  0  0  0  0
  6  7  1  0  0  0  0
  7  8  2  0  0  0  0
  8  9  1  0  0  0  0
  9 10  2  0  0  0  0
  5 10  1  0  0  0  0
 11  8  1  4  0  0  0
 11 12  2  0  0  0  0
 12 13  1  0  0  0  0
 14 13  1  4  0  0  0
 14 15  1  0  0  0  0
 15 16  2  0  0  0  0
 12 16  1  0  0  0  0
 14 17  2  0  0  0  0
 17 18  1  0  0  0  0
 18 19  2  0  0  0  0
 19 20  1  0  0  0  0
 20 21  2  0  0  0  0
 21 22  1  0  0  0  0
 22 23  2  0  0  0  0
 18 23  1  0  0  0  0
 21 24  1  0  0  0  0
 24 25  1  0  0  0  0
 24 26  1  0  0  0  0
 24 27  1  0  0  0  0
 17 28  1  0  0  0  0
 28 29  2  0  0  0  0
 29 30  1  0  0  0  0
 30 31  1  0  0  0  0
 31 32  2  0  0  0  0
 28 32  1  0  0  0  0
 30 33  2  0  0  0  0
 33 34  1  0  0  0  0
 34 35  2  0  0  0  0
 35 36  1  0  0  0  0
 36 37  2  0  0  0  0
 37 38  1  0  0  0  0
 38 39  2  0  0  0  0
 34 39  1  0  0  0  0
 37 40  1  0  0  0  0
 40 41  1  0  0  0  0
 40 42  1  0  0  0  0
 40 43  1  0  0  0  0
 33 44  1  0  0  0  0
 44 45  4  0  0  0  0
 45 46  4  0  0  0  0
 46 47  4  0  0  0  0
 47 48  4  0  0  0  0
 44 48  4  0  0  0  0
 47 49  1  0  0  0  0
 49 50  1  0  0  0  0
 50 51  2  0  0  0  0
 51 52  1  0  0  0  0
 52 53  2  0  0  0  0
 53 54  1  0  0  0  0
 54 55  2  0  0  0  0
 50 55  1  0  0  0  0
 53 56  1  0  0  0  0
 56 57  1  0  0  0  0
 56 58  1  0  0  0  0
 56 59  1  0  0  0  0
 49 60  2  0  0  0  0
 60 61  1  0  0  0  0
 61 62  2  0  0  0  0
 62 63  1  0  0  0  0
 11 63  1  0  0  0  0
 63 64  2  0  0  0  0
 60 64  1  0  0  0  0
M  END
> <DRUGBANK_ID>
DB01999

> <DRUG_GROUPS>
experimental

> <GENERIC_NAME>
5,10,15,20-Tetrakis(4-Sulpfonatophenyl)-21h,23h-Porphine

> <CHEMICAL_FORMULA>
C44H33N4O12S4

> <MOLECULAR_WEIGHT>
938.012

> <EXACT_MASS>
937.0977803

> <SMILES>
OS(O)([O-])C1=CC=C(C=C1)C1=C2NC(C=C2)=C(C2=N\C(C=C2)=C(/c2ccc(n2)\C(=C2\C=CC1=N2)C1=CC=C(C=C1)S(O)(O)[O-])C1=CC=C(C=C1)S(O)(O)[O-])C1=CC=C(C=C1)S(O)(O)[O-]

> <JCHEM_ACCEPTOR_COUNT>
15

> <JCHEM_DONOR_COUNT>
9

> <JCHEM_ACIDIC_PKA>
14.33

> <JCHEM_BASIC_PKA>
5.15

> <JCHEM_PHYSIOLOGICAL_CHARGE>
0

> <ALOGPS_LOGP>
4.67

> <JCHEM_LOGP>
7.35

> <ALOGPS_LOGS>
-5.1

> <JCHEM_POLARIZABILITY>
100.58

> <JCHEM_POLAR_SURFACE_AREA>
308.54

> <JCHEM_REFRACTIVITY>
238.22

> <JCHEM_ROTATABLE_BOND_COUNT>
8

> <ALOGPS_SOLUBILITY>
7.24e-03 g/l __ 

$$$$
