
  Mrv0541 02231215502D          

 35 38  0  0  1  0            999 V2000
   -0.6941   -1.5205    0.0000 O   0  0  0  0  0  0  0  0  0  0  0  0
   -0.6941   -2.3455    0.0000 C   0  0  0  0  0  0  0  0  0  0  0  0
    0.0204   -2.7580    0.0000 C   0  0  0  0  0  0  0  0  0  0  0  0
    0.0204   -3.5830    0.0000 C   0  0  0  0  0  0  0  0  0  0  0  0
   -0.6941   -3.9955    0.0000 C   0  0  0  0  0  0  0  0  0  0  0  0
   -1.4085   -3.5830    0.0000 C   0  0  0  0  0  0  0  0  0  0  0  0
   -1.4085   -2.7580    0.0000 C   0  0  0  0  0  0  0  0  0  0  0  0
   -0.6941   -4.8205    0.0000 C   0  0  0  0  0  0  0  0  0  0  0  0
    0.0204   -5.2330    0.0000 O   0  0  0  0  0  0  0  0  0  0  0  0
   -1.4085   -5.2330    0.0000 N   0  0  0  0  0  0  0  0  0  0  0  0
   -1.4085   -6.0580    0.0000 C   0  0  1  0  0  0  0  0  0  0  0  0
   -0.6652   -6.4160    0.0000 C   0  0  0  0  0  0  0  0  0  0  0  0
   -0.4817   -7.2203    0.0000 N   0  0  0  0  0  0  0  0  0  0  0  0
   -0.9960   -7.8653    0.0000 C   0  0  0  0  0  0  0  0  0  0  0  0
   -1.8210   -7.8653    0.0000 C   0  0  0  0  0  0  0  0  0  0  0  0
   -2.3354   -7.2203    0.0000 C   0  0  0  0  0  0  0  0  0  0  0  0
   -2.1518   -6.4160    0.0000 C   0  0  1  0  0  0  0  0  0  0  0  0
   -2.7969   -5.9016    0.0000 O   0  0  0  0  0  0  0  0  0  0  0  0
   -3.5648   -6.2030    0.0000 C   0  0  0  0  0  0  0  0  0  0  0  0
   -3.6878   -7.0188    0.0000 O   0  0  0  0  0  0  0  0  0  0  0  0
   -4.2098   -5.6886    0.0000 C   0  0  0  0  0  0  0  0  0  0  0  0
   -4.9778   -5.9900    0.0000 C   0  0  0  0  0  0  0  0  0  0  0  0
   -5.6228   -5.4756    0.0000 C   0  0  0  0  0  0  0  0  0  0  0  0
   -5.4999   -4.6598    0.0000 C   0  0  0  0  0  0  0  0  0  0  0  0
   -4.7319   -4.3584    0.0000 C   0  0  0  0  0  0  0  0  0  0  0  0
   -4.0869   -4.8728    0.0000 C   0  0  0  0  0  0  0  0  0  0  0  0
   -6.1449   -4.1455    0.0000 C   0  0  0  0  0  0  0  0  0  0  0  0
   -6.0219   -3.3297    0.0000 O   0  0  0  0  0  0  0  0  0  0  0  0
   -6.9128   -4.4469    0.0000 C   0  0  0  0  0  0  0  0  0  0  0  0
   -7.0358   -5.2627    0.0000 C   0  0  0  0  0  0  0  0  0  0  0  0
   -7.8038   -5.5641    0.0000 C   0  0  0  0  0  0  0  0  0  0  0  0
   -8.4488   -5.0497    0.0000 C   0  0  0  0  0  0  0  0  0  0  0  0
   -8.3258   -4.2339    0.0000 C   0  0  0  0  0  0  0  0  0  0  0  0
   -7.5579   -3.9325    0.0000 C   0  0  0  0  0  0  0  0  0  0  0  0
   -7.4349   -3.1167    0.0000 O   0  0  0  0  0  0  0  0  0  0  0  0
  1  2  1  0  0  0  0
  2  3  2  0  0  0  0
  3  4  1  0  0  0  0
  4  5  2  0  0  0  0
  5  6  1  0  0  0  0
  6  7  2  0  0  0  0
  2  7  1  0  0  0  0
  5  8  1  0  0  0  0
  8  9  2  0  0  0  0
  8 10  1  0  0  0  0
 11 10  1  1  0  0  0
 11 12  1  0  0  0  0
 12 13  1  0  0  0  0
 13 14  1  0  0  0  0
 14 15  1  0  0  0  0
 15 16  1  0  0  0  0
 16 17  1  0  0  0  0
 11 17  1  0  0  0  0
 17 18  1  1  0  0  0
 18 19  1  0  0  0  0
 19 20  2  0  0  0  0
 19 21  1  0  0  0  0
 21 22  2  0  0  0  0
 22 23  1  0  0  0  0
 23 24  2  0  0  0  0
 24 25  1  0  0  0  0
 25 26  2  0  0  0  0
 21 26  1  0  0  0  0
 24 27  1  0  0  0  0
 27 28  2  0  0  0  0
 27 29  1  0  0  0  0
 29 30  2  0  0  0  0
 30 31  1  0  0  0  0
 31 32  2  0  0  0  0
 32 33  1  0  0  0  0
 33 34  2  0  0  0  0
 29 34  1  0  0  0  0
 34 35  1  0  0  0  0
M  END
> <DRUGBANK_ID>
DB01940

> <DRUG_GROUPS>
experimental

> <GENERIC_NAME>
Balanol Analog 2

> <CHEMICAL_FORMULA>
C27H26N2O6

> <MOLECULAR_WEIGHT>
474.5051

> <EXACT_MASS>
474.179086574

> <IUPAC_NAME>
(3S,4R)-3-[(4-hydroxybenzene)amido]azepan-4-yl 4-[(2-hydroxyphenyl)carbonyl]benzoate

> <IUPAC_TRADITIONAL_NAME>
(3S,4R)-3-(4-hydroxybenzamido)azepan-4-yl 4-[(2-hydroxyphenyl)carbonyl]benzoate

> <INCHI_IDENTIFIER>
InChI=1S/C27H26N2O6/c30-20-13-11-18(12-14-20)26(33)29-22-16-28-15-3-6-24(22)35-27(34)19-9-7-17(8-10-19)25(32)21-4-1-2-5-23(21)31/h1-2,4-5,7-14,22,24,28,30-31H,3,6,15-16H2,(H,29,33)/t22-,24+/m0/s1

> <INCHI_KEY>
InChIKey=SQLYTJZXRRDERK-LADGPHEKSA-N

> <SMILES>
OC1=CC=C(C=C1)C(=O)N[C@H]1CNCCC[C@H]1OC(=O)C1=CC=C(C=C1)C(=O)C1=CC=CC=C1O

> <JCHEM_ACCEPTOR_COUNT>
6

> <JCHEM_DONOR_COUNT>
4

> <JCHEM_ACIDIC_PKA>
7.98

> <JCHEM_BASIC_PKA>
9.65

> <JCHEM_PHYSIOLOGICAL_CHARGE>
1

> <ALOGPS_LOGP>
3.06

> <JCHEM_LOGP>
3.18

> <ALOGPS_LOGS>
-5.1

> <JCHEM_POLARIZABILITY>
48.92

> <JCHEM_POLAR_SURFACE_AREA>
124.96

> <JCHEM_REFRACTIVITY>
130.29

> <JCHEM_ROTATABLE_BOND_COUNT>
7

> <ALOGPS_SOLUBILITY>
3.95e-03 g/l __ 

$$$$
