
  Mrv0541 02231215402D          

 28 30  0  0  0  0            999 V2000
    5.0013    4.5375    0.0000 O    0  0  0  0  0  0  0  0  0  0  0  0
    5.0013    3.7125    0.0000 C    0  0  0  0  0  0  0  0  0  0  0  0
    4.2868    3.3000    0.0000 O    0  0  0  0  0  0  0  0  0  0  0  0
    5.7158    3.3000    0.0000 C    0  0  0  0  0  0  0  0  0  0  0  0
    5.7158    2.4750    0.0000 N    0  0  0  0  0  0  0  0  0  0  0  0
    5.0013    2.0625    0.0000 C    0  0  0  0  0  0  0  0  0  0  0  0
    4.2868    2.4750    0.0000 O    0  0  0  0  0  0  0  0  0  0  0  0
    5.0013    1.2375    0.0000 C    0  0  0  0  0  0  0  0  0  0  0  0
    5.7158    0.8250    0.0000 C    0  0  0  0  0  0  0  0  0  0  0  0
    5.7158    0.0000    0.0000 C    0  0  0  0  0  0  0  0  0  0  0  0
    5.0013   -0.4125    0.0000 C    0  0  0  0  0  0  0  0  0  0  0  0
    4.2868    0.0000    0.0000 C    0  0  0  0  0  0  0  0  0  0  0  0
    4.2868    0.8250    0.0000 C    0  0  0  0  0  0  0  0  0  0  0  0
    6.4302    3.7125    0.0000 C    0  0  0  0  0  0  0  0  0  0  0  0
    7.1447    3.3000    0.0000 C    0  0  0  0  0  0  0  0  0  0  0  0
    7.8592    3.7125    0.0000 C    0  0  0  0  0  0  0  0  0  0  0  0
    8.5737    3.3000    0.0000 C    0  0  0  0  0  0  0  0  0  0  0  0
    8.5737    2.4750    0.0000 C    0  0  0  0  0  0  0  0  0  0  0  0
    9.2881    2.0625    0.0000 O    0  0  0  0  0  0  0  0  0  0  0  0
    9.2881    1.2375    0.0000 C    0  0  0  0  0  0  0  0  0  0  0  0
   10.0026    0.8250    0.0000 C    0  0  0  0  0  0  0  0  0  0  0  0
   10.0026    0.0000    0.0000 C    0  0  0  0  0  0  0  0  0  0  0  0
    9.2881   -0.4125    0.0000 C    0  0  0  0  0  0  0  0  0  0  0  0
    8.5737    0.0000    0.0000 C    0  0  0  0  0  0  0  0  0  0  0  0
    8.5737    0.8250    0.0000 C    0  0  0  0  0  0  0  0  0  0  0  0
    7.8592    1.2375    0.0000 Br   0  0  0  0  0  0  0  0  0  0  0  0
    7.8592    2.0625    0.0000 C    0  0  0  0  0  0  0  0  0  0  0  0
    7.1447    2.4750    0.0000 C    0  0  0  0  0  0  0  0  0  0  0  0
  1  2  1  0  0  0  0
  2  3  2  0  0  0  0
  2  4  1  0  0  0  0
  4  5  1  0  0  0  0
  5  6  1  0  0  0  0
  6  7  2  0  0  0  0
  6  8  1  0  0  0  0
  8  9  2  0  0  0  0
  9 10  1  0  0  0  0
 10 11  2  0  0  0  0
 11 12  1  0  0  0  0
 12 13  2  0  0  0  0
  8 13  1  0  0  0  0
  4 14  2  0  0  0  0
 14 15  1  0  0  0  0
 15 16  2  0  0  0  0
 16 17  1  0  0  0  0
 17 18  2  0  0  0  0
 18 19  1  0  0  0  0
 19 20  1  0  0  0  0
 20 21  2  0  0  0  0
 21 22  1  0  0  0  0
 22 23  2  0  0  0  0
 23 24  1  0  0  0  0
 24 25  2  0  0  0  0
 20 25  1  0  0  0  0
 25 26  1  0  0  0  0
 18 27  1  0  0  0  0
 27 28  2  0  0  0  0
 15 28  1  0  0  0  0
M  END
> <DRUGBANK_ID>
DB01720

> <DRUG_GROUPS>
experimental

> <GENERIC_NAME>
(2z)-2-(Benzoylamino)-3-[4-(2-Bromophenoxy)Phenyl]-2-Propenoic Acid

> <CHEMICAL_FORMULA>
C22H16BrNO4

> <MOLECULAR_WEIGHT>
438.271

> <EXACT_MASS>
437.026270652

> <IUPAC_NAME>
(2Z)-3-[4-(2-bromophenoxy)phenyl]-2-(phenylformamido)prop-2-enoic acid

> <IUPAC_TRADITIONAL_NAME>
(2Z)-3-[4-(2-bromophenoxy)phenyl]-2-(phenylformamido)prop-2-enoic acid

> <INCHI_IDENTIFIER>
InChI=1S/C22H16BrNO4/c23-18-8-4-5-9-20(18)28-17-12-10-15(11-13-17)14-19(22(26)27)24-21(25)16-6-2-1-3-7-16/h1-14H,(H,24,25)(H,26,27)/b19-14-

> <INCHI_KEY>
InChIKey=WLPJLQNKCJWAFL-RGEXLXHISA-N

> <SMILES>
OC(=O)C(\NC(=O)C1=CC=CC=C1)=C\C1=CC=C(OC2=CC=CC=C2Br)C=C1

> <JCHEM_ACCEPTOR_COUNT>
3

> <JCHEM_DONOR_COUNT>
2

> <JCHEM_ACIDIC_PKA>
3.24

> <JCHEM_BASIC_PKA>
-7

> <JCHEM_PHYSIOLOGICAL_CHARGE>
-1

> <ALOGPS_LOGP>
4.72

> <JCHEM_LOGP>
4.92

> <ALOGPS_LOGS>
-6.1

> <JCHEM_POLARIZABILITY>
39.99

> <JCHEM_POLAR_SURFACE_AREA>
75.63

> <JCHEM_REFRACTIVITY>
110.66

> <JCHEM_ROTATABLE_BOND_COUNT>
6

> <ALOGPS_SOLUBILITY>
3.56e-04 g/l __ 

$$$$
