693
  Mrv0541 02241214212D          

 34 37  0  0  0  0            999 V2000
    3.6140    0.4249    0.0000 C   0  0  0  0  0  0  0  0  0  0  0  0
    3.6140   -0.4001    0.0000 C   0  0  0  0  0  0  0  0  0  0  0  0
    2.8995   -0.8126    0.0000 C   0  0  0  0  0  0  0  0  0  0  0  0
    2.1851   -0.4001    0.0000 C   0  0  0  0  0  0  0  0  0  0  0  0
    2.1851    0.4249    0.0000 C   0  0  0  0  0  0  0  0  0  0  0  0
    2.8995    0.8374    0.0000 C   0  0  0  0  0  0  0  0  0  0  0  0
    4.3285    0.8374    0.0000 C   0  0  0  0  0  0  0  0  0  0  0  0
    5.0429    0.4249    0.0000 N   0  0  0  0  0  0  0  0  0  0  0  0
    4.3285    1.6624    0.0000 N   0  3  0  0  0  0  0  0  0  0  0  0
    1.4004   -0.6551    0.0000 N   0  0  0  0  0  0  0  0  0  0  0  0
    1.4004    0.6798    0.0000 N   0  0  0  0  0  0  0  0  0  0  0  0
    0.9155    0.0124    0.0000 C   0  0  0  0  0  0  0  0  0  0  0  0
    0.0905    0.0124    0.0000 C   0  0  0  0  0  0  0  0  0  0  0  0
   -0.3220   -0.7021    0.0000 C   0  0  0  0  0  0  0  0  0  0  0  0
   -1.1470   -0.7021    0.0000 C   0  0  0  0  0  0  0  0  0  0  0  0
   -1.5595   -1.4166    0.0000 C   0  0  2  0  0  0  0  0  0  0  0  0
   -2.3845   -1.4166    0.0000 C   0  0  0  0  0  0  0  0  0  0  0  0
   -2.7970   -2.1310    0.0000 O   0  0  0  0  0  0  0  0  0  0  0  0
   -2.7970   -0.7021    0.0000 O   0  5  0  0  0  0  0  0  0  0  0  0
   -1.1470   -2.1310    0.0000 C   0  0  0  0  0  0  0  0  0  0  0  0
   -1.5595   -2.8455    0.0000 C   0  0  0  0  0  0  0  0  0  0  0  0
   -1.1470   -3.5600    0.0000 O   0  0  0  0  0  0  0  0  0  0  0  0
   -2.3845   -2.8455    0.0000 O   0  5  0  0  0  0  0  0  0  0  0  0
   -1.5595    0.0124    0.0000 C   0  0  0  0  0  0  0  0  0  0  0  0
   -1.1470    0.7269    0.0000 C   0  0  0  0  0  0  0  0  0  0  0  0
   -0.3220    0.7269    0.0000 C   0  0  0  0  0  0  0  0  0  0  0  0
    0.0905    1.4413    0.0000 O   0  5  0  0  0  0  0  0  0  0  0  0
   -1.5595    1.4413    0.0000 C   0  0  0  0  0  0  0  0  0  0  0  0
   -2.3845    1.4413    0.0000 C   0  0  0  0  0  0  0  0  0  0  0  0
   -2.7970    2.1558    0.0000 C   0  0  0  0  0  0  0  0  0  0  0  0
   -2.3845    2.8703    0.0000 C   0  0  0  0  0  0  0  0  0  0  0  0
   -1.5595    2.8703    0.0000 C   0  0  0  0  0  0  0  0  0  0  0  0
   -1.1470    2.1558    0.0000 C   0  0  0  0  0  0  0  0  0  0  0  0
   -2.7970    0.7269    0.0000 F   0  0  0  0  0  0  0  0  0  0  0  0
  1  2  2  0  0  0  0
  1  6  1  0  0  0  0
  1  7  1  0  0  0  0
  2  3  1  0  0  0  0
  3  4  2  0  0  0  0
  4  5  1  0  0  0  0
  4 10  1  0  0  0  0
  5  6  2  0  0  0  0
  5 11  1  0  0  0  0
  7  8  1  0  0  0  0
  7  9  2  0  0  0  0
 10 12  1  0  0  0  0
 11 12  2  0  0  0  0
 12 13  1  0  0  0  0
 13 14  2  0  0  0  0
 13 26  1  0  0  0  0
 14 15  1  0  0  0  0
 15 16  1  0  0  0  0
 15 24  2  0  0  0  0
 16 17  1  0  0  0  0
 16 20  1  1  0  0  0
 17 18  2  0  0  0  0
 17 19  1  0  0  0  0
 20 21  1  0  0  0  0
 21 22  2  0  0  0  0
 21 23  1  0  0  0  0
 24 25  1  0  0  0  0
 25 26  2  0  0  0  0
 25 28  1  0  0  0  0
 26 27  1  0  0  0  0
 28 29  2  0  0  0  0
 28 33  1  0  0  0  0
 29 30  1  0  0  0  0
 29 34  1  0  0  0  0
 30 31  2  0  0  0  0
 31 32  1  0  0  0  0
 32 33  2  0  0  0  0
M  END
> <DRUGBANK_ID>
DB01741

> <DRUG_GROUPS>
experimental

> <GENERIC_NAME>
CRA_17693

> <CHEMICAL_FORMULA>
C24H17FN4O5

> <MOLECULAR_WEIGHT>
460.414

> <EXACT_MASS>
460.118297879

> <IUPAC_NAME>
(2R)-2-(3-{5-[amino(iminiumyl)methyl]-1H-1,3-benzodiazol-2-yl}-5-(2-fluorophenyl)-4-oxidophenyl)butanedioate

> <IUPAC_TRADITIONAL_NAME>
(2R)-2-(3-{5-[amino(iminio)methyl]-1H-1,3-benzodiazol-2-yl}-5-(2-fluorophenyl)-4-oxidophenyl)butanedioate

> <INCHI_IDENTIFIER>
InChI=1S/C24H19FN4O5/c25-17-4-2-1-3-13(17)15-7-12(14(24(33)34)10-20(30)31)8-16(21(15)32)23-28-18-6-5-11(22(26)27)9-19(18)29-23/h1-9,14,32H,10H2,(H3,26,27)(H,28,29)(H,30,31)(H,33,34)/p-2/t14-/m1/s1

> <INCHI_KEY>
InChIKey=XCOFROALSAFROV-CQSZACIVSA-L

> <SMILES>
NC(=[NH2+])C1=CC=C2NC(=NC2=C1)C1=CC(=CC(=C1[O-])C1=C(F)C=CC=C1)[C@@H](CC([O-])=O)C([O-])=O

> <JCHEM_ACCEPTOR_COUNT>
7

> <JCHEM_DONOR_COUNT>
3

> <JCHEM_ACIDIC_PKA>
4.39

> <JCHEM_BASIC_PKA>
10.6

> <JCHEM_PHYSIOLOGICAL_CHARGE>
-1

> <ALOGPS_LOGP>
1.43

> <JCHEM_LOGP>
1.18

> <ALOGPS_LOGS>
-5

> <JCHEM_POLARIZABILITY>
45.86

> <JCHEM_POLAR_SURFACE_AREA>
183.61

> <JCHEM_REFRACTIVITY>
174.25

> <JCHEM_ROTATABLE_BOND_COUNT>
7

> <ALOGPS_SOLUBILITY>
6.23e-03 g/l __ 

$$$$
