1085
  Mrv0541 02231215142D          

 15 16  0  0  1  0            999 V2000
    4.1277   -1.4158    0.0000 O   0  0  0  0  0  0  0  0  0  0  0  0
    2.8178   -2.0833    0.0000 O   0  0  0  0  0  0  0  0  0  0  0  0
    5.1834    0.7557    0.0000 N   0  0  0  0  0  0  0  0  0  0  0  0
    5.3229    2.0833    0.0000 N   0  0  0  0  0  0  0  0  0  0  0  0
    3.7152   -0.1463    0.0000 C   0  0  1  0  0  0  0  0  0  0  0  0
    3.0478   -0.6312    0.0000 C   0  0  2  0  0  0  0  0  0  0  0  0
    3.7152    0.6787    0.0000 C   0  0  0  0  0  0  0  0  0  0  0  0
    4.3827   -0.6312    0.0000 C   0  0  0  0  0  0  0  0  0  0  0  0
    2.2631   -0.3763    0.0000 C   0  0  0  0  0  0  0  0  0  0  0  0
    3.3027   -1.4158    0.0000 C   0  0  0  0  0  0  0  0  0  0  0  0
    4.4297    1.0913    0.0000 C   0  0  0  0  0  0  0  0  0  0  0  0
    1.6500   -0.9283    0.0000 C   0  0  0  0  0  0  0  0  0  0  0  0
    4.5160    1.9117    0.0000 C   0  0  0  0  0  0  0  0  0  0  0  0
    5.7354    1.3688    0.0000 C   0  0  0  0  0  0  0  0  0  0  0  0
    5.3549   -0.0513    0.0000 C   0  0  0  0  0  0  0  0  0  0  0  0
  1  8  1  0  0  0  0
  1 10  1  0  0  0  0
  2 10  2  0  0  0  0
  3 11  1  0  0  0  0
  3 14  1  0  0  0  0
  3 15  1  0  0  0  0
  4 13  1  0  0  0  0
  4 14  2  0  0  0  0
  5  6  1  0  0  0  0
  5  7  1  1  0  0  0
  5  8  1  0  0  0  0
  6  9  1  1  0  0  0
  6 10  1  0  0  0  0
  7 11  1  0  0  0  0
  9 12  1  0  0  0  0
 11 13  2  0  0  0  0
M  END
> <DRUGBANK_ID>
DB01085

> <DRUG_GROUPS>
approved

> <GENERIC_NAME>
Pilocarpine

> <SALTS>
Pilocarpine Hydrochloride

> <BRANDS>
Diocarpine; Miocarpine; Pilostat; Pilovisc; Salagen; Timpilo

> <CHEMICAL_FORMULA>
C11H16N2O2

> <MOLECULAR_WEIGHT>
208.2569

> <EXACT_MASS>
208.121177766

> <IUPAC_NAME>
(3S,4R)-3-ethyl-4-[(1-methyl-1H-imidazol-5-yl)methyl]oxolan-2-one

> <IUPAC_TRADITIONAL_NAME>
pilocarpine

> <INCHI_IDENTIFIER>
InChI=1S/C11H16N2O2/c1-3-10-8(6-15-11(10)14)4-9-5-12-7-13(9)2/h5,7-8,10H,3-4,6H2,1-2H3/t8-,10-/m0/s1

> <INCHI_KEY>
InChIKey=QCHFTSOMWOSFHM-WPRPVWTQSA-N

> <SMILES>
CC[C@H]1[C@@H](CC2=CN=CN2C)COC1=O

> <JCHEM_ACCEPTOR_COUNT>
2

> <JCHEM_DONOR_COUNT>
0

> <JCHEM_BASIC_PKA>
6.61

> <JCHEM_PHYSIOLOGICAL_CHARGE>
0

> <ALOGPS_LOGP>
1.15

> <JCHEM_LOGP>
0.95

> <ALOGPS_LOGS>
-2

> <JCHEM_POLARIZABILITY>
22.34

> <JCHEM_POLAR_SURFACE_AREA>
44.12

> <JCHEM_REFRACTIVITY>
56.53

> <JCHEM_ROTATABLE_BOND_COUNT>
3

> <ALOGPS_SOLUBILITY>
2.07e+00 g/l __ 

$$$$
