1181
  Mrv0541 02231215182D          

 14 14  0  0  1  0            999 V2000
    1.6500    0.6040    0.0000 Cl   0  0  0  0  0  0  0  0  0  0  0  0
    4.5080   -2.2540    0.0000 Cl   0  0  0  0  0  0  0  0  0  0  0  0
    4.5080    0.6040    0.0000 P    0  0  0  0  0  0  0  0  0  0  0  0
    5.2224    1.0165    0.0000 O    0  0  0  0  0  0  0  0  0  0  0  0
    4.9205   -0.1106    0.0000 O    0  0  0  0  0  0  0  0  0  0  0  0
    3.7935    1.0165    0.0000 N    0  0  0  0  0  0  0  0  0  0  0  0
    4.0955   -0.1106    0.0000 N    0  0  0  0  0  0  0  0  0  0  0  0
    3.7935    1.8415    0.0000 C    0  0  0  0  0  0  0  0  0  0  0  0
    4.5080    2.2540    0.0000 C    0  0  0  0  0  0  0  0  0  0  0  0
    5.2224    1.8415    0.0000 C    0  0  0  0  0  0  0  0  0  0  0  0
    3.0791    0.6040    0.0000 C    0  0  0  0  0  0  0  0  0  0  0  0
    4.5080   -0.8250    0.0000 C    0  0  0  0  0  0  0  0  0  0  0  0
    2.3645    1.0165    0.0000 C    0  0  0  0  0  0  0  0  0  0  0  0
    4.0955   -1.5395    0.0000 C    0  0  0  0  0  0  0  0  0  0  0  0
  1 13  1  0  0  0  0
  2 14  1  0  0  0  0
  3  4  1  0  0  0  0
  3  5  2  0  0  0  0
  3  6  1  0  0  0  0
  3  7  1  0  0  0  0
  4 10  1  0  0  0  0
  6  8  1  0  0  0  0
  6 11  1  0  0  0  0
  7 12  1  0  0  0  0
  8  9  1  0  0  0  0
  9 10  1  0  0  0  0
 11 13  1  0  0  0  0
 12 14  1  0  0  0  0
M  END
> <DRUGBANK_ID>
DB01181

> <DRUG_GROUPS>
approved

> <GENERIC_NAME>
Ifosfamide

> <BRANDS>


> <CHEMICAL_FORMULA>
C7H15Cl2N2O2P

> <MOLECULAR_WEIGHT>
261.086

> <EXACT_MASS>
260.02481966

> <IUPAC_NAME>
3-(2-chloroethyl)-2-[(2-chloroethyl)amino]-1,3,2$l^{5}-oxazaphosphinan-2-one

> <IUPAC_TRADITIONAL_NAME>
ifosfamide

> <INCHI_IDENTIFIER>
InChI=1S/C7H15Cl2N2O2P/c8-2-4-10-14(12)11(6-3-9)5-1-7-13-14/h1-7H2,(H,10,12)

> <INCHI_KEY>
InChIKey=HOMGKSMUEGBAAB-UHFFFAOYSA-N

> <SMILES>
ClCCNP1(=O)OCCCN1CCCl

> <JCHEM_ACCEPTOR_COUNT>
2

> <JCHEM_DONOR_COUNT>
1

> <JCHEM_ACIDIC_PKA>
13.24

> <JCHEM_BASIC_PKA>
0.12

> <JCHEM_PHYSIOLOGICAL_CHARGE>
0

> <ALOGPS_LOGP>
0.57

> <JCHEM_LOGP>
0.097

> <ALOGPS_LOGS>
-1.2

> <JCHEM_POLARIZABILITY>
23.94

> <JCHEM_POLAR_SURFACE_AREA>
41.57

> <JCHEM_REFRACTIVITY>
58.48

> <JCHEM_ROTATABLE_BOND_COUNT>
5

> <ALOGPS_SOLUBILITY>
1.50e+01 g/l __ 

$$$$
