
  Mrv0541 02231215362D          

 12 11  0  0  1  0            999 V2000
    1.0461    1.4289    0.0000 O   0  0  0  0  0  0  0  0  0  0  0  0
    1.7605    1.8414    0.0000 C   0  0  0  0  0  0  0  0  0  0  0  0
    2.4750    1.4289    0.0000 C   0  0  2  0  0  0  0  0  0  0  0  0
    2.4750    0.6039    0.0000 O   0  0  0  0  0  0  0  0  0  0  0  0
    3.1895    1.8414    0.0000 C   0  0  1  0  0  0  0  0  0  0  0  0
    3.1895    2.6664    0.0000 O   0  0  0  0  0  0  0  0  0  0  0  0
    3.9039    1.4289    0.0000 C   0  0  2  0  0  0  0  0  0  0  0  0
    3.9039    0.6039    0.0000 O   0  0  0  0  0  0  0  0  0  0  0  0
    4.6184    1.8414    0.0000 C   0  0  2  0  0  0  0  0  0  0  0  0
    4.6184    2.6664    0.0000 O   0  0  0  0  0  0  0  0  0  0  0  0
    5.3329    1.4289    0.0000 C   0  0  0  0  0  0  0  0  0  0  0  0
    6.0474    1.8414    0.0000 O   0  0  0  0  0  0  0  0  0  0  0  0
  1  2  1  0  0  0  0
  2  3  1  0  0  0  0
  3  4  1  1  0  0  0
  3  5  1  0  0  0  0
  5  6  1  1  0  0  0
  5  7  1  0  0  0  0
  7  8  1  1  0  0  0
  7  9  1  0  0  0  0
  9 10  1  6  0  0  0
  9 11  1  0  0  0  0
 11 12  1  0  0  0  0
M  END
> <DRUGBANK_ID>
DB01638

> <DRUG_GROUPS>
experimental

> <GENERIC_NAME>
D-Sorbitol

> <CHEMICAL_FORMULA>
C6H14O6

> <MOLECULAR_WEIGHT>
182.1718

> <EXACT_MASS>
182.07903818

> <IUPAC_NAME>
(2R,3R,4R,5S)-hexane-1,2,3,4,5,6-hexol

> <IUPAC_TRADITIONAL_NAME>
D-sorbitol

> <INCHI_IDENTIFIER>
InChI=1S/C6H14O6/c7-1-3(9)5(11)6(12)4(10)2-8/h3-12H,1-2H2/t3-,4+,5-,6-/m1/s1

> <INCHI_KEY>
InChIKey=FBPFZTCFMRRESA-JGWLITMVSA-N

> <SMILES>
OC[C@H](O)[C@@H](O)[C@H](O)[C@H](O)CO

> <JCHEM_ACCEPTOR_COUNT>
6

> <JCHEM_DONOR_COUNT>
6

> <JCHEM_ACIDIC_PKA>
12.59

> <JCHEM_BASIC_PKA>
-3

> <JCHEM_PHYSIOLOGICAL_CHARGE>
0

> <ALOGPS_LOGP>
-2.7

> <JCHEM_LOGP>
-3.7

> <ALOGPS_LOGS>
0.1

> <JCHEM_POLARIZABILITY>
17.12

> <JCHEM_POLAR_SURFACE_AREA>
121.38

> <JCHEM_REFRACTIVITY>
38.4

> <JCHEM_ROTATABLE_BOND_COUNT>
5

> <ALOGPS_SOLUBILITY>
2.29e+02 g/l __ 

$$$$
