
  Mrv0541 02231215392D          

 11 10  0  0  0  0            999 V2000
    1.0461   -1.4289    0.0000 O   0  0  0  0  0  0  0  0  0  0  0  0
    1.7605   -1.8414    0.0000 N   0  0  0  0  0  0  0  0  0  0  0  0
    2.4750   -1.4289    0.0000 C   0  0  0  0  0  0  0  0  0  0  0  0
    2.4750   -0.6039    0.0000 O   0  0  0  0  0  0  0  0  0  0  0  0
    3.1895   -1.8414    0.0000 C   0  0  0  0  0  0  0  0  0  0  0  0
    3.9039   -1.4289    0.0000 C   0  0  0  0  0  0  0  0  0  0  0  0
    4.6184   -1.8414    0.0000 C   0  0  0  0  0  0  0  0  0  0  0  0
    5.3329   -1.4289    0.0000 P   0  0  0  0  0  0  0  0  0  0  0  0
    6.0474   -1.0164    0.0000 O   0  5  0  0  0  0  0  0  0  0  0  0
    5.7454   -2.1434    0.0000 O   0  5  0  0  0  0  0  0  0  0  0  0
    4.9204   -0.7145    0.0000 O   0  0  0  0  0  0  0  0  0  0  0  0
  1  2  1  0  0  0  0
  2  3  1  0  0  0  0
  3  4  2  0  0  0  0
  3  5  1  0  0  0  0
  5  6  1  0  0  0  0
  6  7  1  0  0  0  0
  7  8  1  0  0  0  0
  8  9  1  0  0  0  0
  8 10  1  0  0  0  0
  8 11  2  0  0  0  0
M  END
> <DRUGBANK_ID>
DB01695

> <DRUG_GROUPS>
experimental

> <GENERIC_NAME>
N-Hydroxy-4-Phosphono-Butanamide

> <CHEMICAL_FORMULA>
C4H8NO5P

> <MOLECULAR_WEIGHT>
181.0838

> <EXACT_MASS>
181.014008883

> <IUPAC_NAME>
[3-(hydroxycarbamoyl)propyl]phosphonate

> <IUPAC_TRADITIONAL_NAME>
3-(hydroxycarbamoyl)propylphosphonate

> <INCHI_IDENTIFIER>
InChI=1S/C4H10NO5P/c6-4(5-7)2-1-3-11(8,9)10/h7H,1-3H2,(H,5,6)(H2,8,9,10)/p-2

> <INCHI_KEY>
InChIKey=AKXSFRVADDCWTF-UHFFFAOYSA-L

> <SMILES>
ONC(=O)CCCP([O-])([O-])=O

> <JCHEM_ACCEPTOR_COUNT>
5

> <JCHEM_DONOR_COUNT>
2

> <JCHEM_ACIDIC_PKA>
1.81

> <JCHEM_BASIC_PKA>
-5.5

> <JCHEM_PHYSIOLOGICAL_CHARGE>
-1

> <ALOGPS_LOGP>
-1.1

> <JCHEM_LOGP>
-2.1

> <ALOGPS_LOGS>
-0.67

> <JCHEM_POLARIZABILITY>
14.42

> <JCHEM_POLAR_SURFACE_AREA>
112.52

> <JCHEM_REFRACTIVITY>
34.18

> <JCHEM_ROTATABLE_BOND_COUNT>
4

> <ALOGPS_SOLUBILITY>
4.64e+01 g/l __ 

$$$$
