
  Mrv0541 04191212162D          

 34 37  0  0  0  0            999 V2000
   -1.4036   -3.9359    0.0000 C   0  0  0  0  0  0  0  0  0  0  0  0
   -2.1255   -5.1620    0.0000 C   0  0  0  0  0  0  0  0  0  0  0  0
   -0.6989   -4.3370    0.0000 C   0  0  0  0  0  0  0  0  0  0  0  0
   -2.1255   -4.3370    0.0000 C   0  0  0  0  0  0  0  0  0  0  0  0
    4.2969   -3.8901    0.0000 C   0  0  0  0  0  0  0  0  0  0  0  0
    5.0073   -5.1219    0.0000 C   0  0  0  0  0  0  0  0  0  0  0  0
   -1.4036   -5.5745    0.0000 O   0  0  0  0  0  0  0  0  0  0  0  0
   -0.6989   -5.1620    0.0000 C   0  0  0  0  0  0  0  0  0  0  0  0
    5.0073   -4.3026    0.0000 C   0  0  0  0  0  0  0  0  0  0  0  0
    3.5922   -4.3026    0.0000 C   0  0  0  0  0  0  0  0  0  0  0  0
    3.5980   -5.1276    0.0000 C   0  0  0  0  0  0  0  0  0  0  0  0
   -2.8302   -5.5745    0.0000 C   0  0  0  0  0  0  0  0  0  0  0  0
    5.7292   -5.5344    0.0000 C   0  0  0  0  0  0  0  0  0  0  0  0
    4.3026   -5.5344    0.0000 O   0  0  0  0  0  0  0  0  0  0  0  0
    0.0172   -3.9245    0.0000 C   0  0  0  0  0  0  0  0  0  0  0  0
    2.8761   -3.9073    0.0000 C   0  0  0  0  0  0  0  0  0  0  0  0
   -1.4036   -3.1109    0.0000 O   0  0  0  0  0  0  0  0  0  0  0  0
    4.2855   -3.0651    0.0000 O   0  0  0  0  0  0  0  0  0  0  0  0
   -2.8474   -6.3995    0.0000 O   0  0  0  0  0  0  0  0  0  0  0  0
    6.4453   -5.1105    0.0000 O   0  0  0  0  0  0  0  0  0  0  0  0
    0.0058   -3.0995    0.0000 O   0  0  0  0  0  0  0  0  0  0  0  0
    2.8703   -3.0823    0.0000 O   0  0  0  0  0  0  0  0  0  0  0  0
    5.7292   -6.3594    0.0000 O   0  0  0  0  0  0  0  0  0  0  0  0
   -3.5234   -5.1105    0.0000 O   0  0  0  0  0  0  0  0  0  0  0  0
    1.4437   -3.0937    0.0000 C   0  0  0  0  0  0  0  0  0  0  0  0
    0.7219   -2.6870    0.0000 C   0  0  0  0  0  0  0  0  0  0  0  0
    2.1542   -2.6698    0.0000 C   0  0  0  0  0  0  0  0  0  0  0  0
    0.0172   -5.5745    0.0000 C   0  0  0  0  0  0  0  0  0  0  0  0
    2.8875   -5.5573    0.0000 C   0  0  0  0  0  0  0  0  0  0  0  0
    1.4437   -3.9187    0.0000 O   0  0  0  0  0  0  0  0  0  0  0  0
    2.1656   -5.1448    0.0000 C   0  0  0  0  0  0  0  0  0  0  0  0
    0.7276   -5.1620    0.0000 C   0  0  0  0  0  0  0  0  0  0  0  0
    0.7276   -4.3370    0.0000 C   0  0  0  0  0  0  0  0  0  0  0  0
    2.1656   -4.3198    0.0000 C   0  0  0  0  0  0  0  0  0  0  0  0
  2  4  2  0  0  0  0
  3  1  1  0  0  0  0
  4  1  1  0  0  0  0
  5 10  1  0  0  0  0
  6 14  1  0  0  0  0
  7  2  1  0  0  0  0
  8  3  2  0  0  0  0
  9  5  1  0  0  0  0
 10 16  1  0  0  0  0
 11 10  2  0  0  0  0
 12  2  1  0  0  0  0
 13  6  1  0  0  0  0
 14 11  1  0  0  0  0
 15  3  1  0  0  0  0
 16 22  1  0  0  0  0
 17  1  2  0  0  0  0
 18  5  2  0  0  0  0
 19 12  2  0  0  0  0
 20 13  1  0  0  0  0
 21 15  1  0  0  0  0
 22 27  1  0  0  0  0
 23 13  2  0  0  0  0
 24 12  1  0  0  0  0
 25 26  1  0  0  0  0
 26 21  1  0  0  0  0
 27 25  1  0  0  0  0
 28  8  1  0  0  0  0
 29 31  2  0  0  0  0
 30 25  1  0  0  0  0
 31 34  1  0  0  0  0
 32 33  1  0  0  0  0
 33 15  2  0  0  0  0
 34 16  2  0  0  0  0
  8  7  1  0  0  0  0
 28 32  2  0  0  0  0
 11 29  1  0  0  0  0
  9  6  2  0  0  0  0
M  END
> <DRUGBANK_ID>
DB01003

> <DRUG_GROUPS>
approved

> <GENERIC_NAME>
Cromoglicic acid

> <SYNONYMS>
Acide Cromoglicique; Acido Cromoglicico; Acidum Cromoglicicum; Cromoglicate; Cromoglicic Acid; Cromoglycate; Cromolyn

> <SALTS>
Sodium cromoglicate

> <BRANDS>
Aarane; Allergocrom; Colimune; Crolom; Cromo-Comod; Cromoptic; Gastrocrom; Gastrofrenal; Inostral; Intal; Lomudal; Lomusol; Nalcrom; Opticrom; Opticron; Rynacrom; Vividrin

> <CHEMICAL_FORMULA>
C23H16O11

> <MOLECULAR_WEIGHT>
468.3665

> <EXACT_MASS>
468.069261354

> <IUPAC_NAME>
5-{3-[(2-carboxy-4-oxo-4H-chromen-5-yl)oxy]-2-hydroxypropoxy}-4-oxo-4H-chromene-2-carboxylic acid

> <IUPAC_TRADITIONAL_NAME>
cromolyn

> <INCHI_IDENTIFIER>
InChI=1S/C23H16O11/c24-11(9-31-14-3-1-5-16-20(14)12(25)7-18(33-16)22(27)28)10-32-15-4-2-6-17-21(15)13(26)8-19(34-17)23(29)30/h1-8,11,24H,9-10H2,(H,27,28)(H,29,30)

> <INCHI_KEY>
InChIKey=IMZMKUWMOSJXDT-UHFFFAOYSA-N

> <SMILES>
OC(COC1=CC=CC2=C1C(=O)C=C(O2)C(O)=O)COC1=CC=CC2=C1C(=O)C=C(O2)C(O)=O

> <JCHEM_ACCEPTOR_COUNT>
11

> <JCHEM_DONOR_COUNT>
3

> <JCHEM_ACIDIC_PKA>
1.77

> <JCHEM_BASIC_PKA>
-3.4

> <JCHEM_PHYSIOLOGICAL_CHARGE>
-2

> <ALOGPS_LOGP>
1.84

> <JCHEM_LOGP>
1.48

> <ALOGPS_LOGS>
-4.1

> <JCHEM_POLARIZABILITY>
44.38

> <JCHEM_POLAR_SURFACE_AREA>
165.89

> <JCHEM_REFRACTIVITY>
114.11

> <JCHEM_ROTATABLE_BOND_COUNT>
8

> <ALOGPS_SOLUBILITY>
3.58e-02 g/l __ 

$$$$
