BEK
  Mrv0541 02231215452D          

 15 15  0  0  0  0            999 V2000
    1.2982    0.8556    0.0000 C   0  0  0  0  0  0  0  0  0  0  0  0
    1.2982    1.6806    0.0000 O   0  0  0  0  0  0  0  0  0  0  0  0
    2.0126    0.4431    0.0000 N   0  0  0  0  0  0  0  0  0  0  0  0
    0.5837    0.4431    0.0000 C   0  0  0  0  0  0  0  0  0  0  0  0
    0.5837   -0.3819    0.0000 C   0  0  0  0  0  0  0  0  0  0  0  0
   -0.1308    0.8556    0.0000 C   0  0  0  0  0  0  0  0  0  0  0  0
    1.2982   -0.7944    0.0000 F   0  0  0  0  0  0  0  0  0  0  0  0
   -0.1308    1.6806    0.0000 F   0  0  0  0  0  0  0  0  0  0  0  0
   -0.1308   -0.7944    0.0000 C   0  0  0  0  0  0  0  0  0  0  0  0
   -0.8453    0.4431    0.0000 C   0  0  0  0  0  0  0  0  0  0  0  0
   -0.8453   -0.3819    0.0000 C   0  0  0  0  0  0  0  0  0  0  0  0
   -0.1308   -1.6194    0.0000 F   0  0  0  0  0  0  0  0  0  0  0  0
   -1.5597    0.8556    0.0000 F   0  0  0  0  0  0  0  0  0  0  0  0
   -1.5597   -0.7944    0.0000 O   0  0  0  0  0  0  0  0  0  0  0  0
   -1.5597   -1.6194    0.0000 C   0  0  0  0  0  0  0  0  0  0  0  0
  1  2  2  0  0  0  0
  1  3  1  0  0  0  0
  1  4  1  0  0  0  0
  4  5  2  0  0  0  0
  4  6  1  0  0  0  0
  5  7  1  0  0  0  0
  5  9  1  0  0  0  0
  6  8  1  0  0  0  0
  6 10  2  0  0  0  0
  9 11  2  0  0  0  0
  9 12  1  0  0  0  0
 10 11  1  0  0  0  0
 10 13  1  0  0  0  0
 11 14  1  0  0  0  0
 14 15  1  0  0  0  0
M  END
> <DRUGBANK_ID>
DB01827

> <DRUG_GROUPS>
experimental

> <GENERIC_NAME>
2,3,5,6-Tetrafluoro-4-Methoxy-Benzamide

> <CHEMICAL_FORMULA>
C8H5F4NO2

> <MOLECULAR_WEIGHT>
223.1244

> <EXACT_MASS>
223.025641229

> <IUPAC_NAME>
2,3,5,6-tetrafluoro-4-methoxybenzamide

> <IUPAC_TRADITIONAL_NAME>
2,3,5,6-tetrafluoro-4-methoxybenzamide

> <INCHI_IDENTIFIER>
InChI=1S/C8H5F4NO2/c1-15-7-5(11)3(9)2(8(13)14)4(10)6(7)12/h1H3,(H2,13,14)

> <INCHI_KEY>
InChIKey=JTXPTSGPUNTKSM-UHFFFAOYSA-N

> <SMILES>
COC1=C(F)C(F)=C(C(N)=O)C(F)=C1F

> <JCHEM_ACCEPTOR_COUNT>
2

> <JCHEM_DONOR_COUNT>
1

> <JCHEM_ACIDIC_PKA>
10.49

> <JCHEM_BASIC_PKA>
-3

> <JCHEM_PHYSIOLOGICAL_CHARGE>
0

> <ALOGPS_LOGP>
1.31

> <JCHEM_LOGP>
1.24

> <ALOGPS_LOGS>
-2.9

> <JCHEM_POLARIZABILITY>
15.8

> <JCHEM_POLAR_SURFACE_AREA>
52.32

> <JCHEM_REFRACTIVITY>
42.47

> <JCHEM_ROTATABLE_BOND_COUNT>
2

> <ALOGPS_SOLUBILITY>
3.09e-01 g/l __ 

$$$$
