1469
  Mrv0541 02231215302D          

 35 40  0  0  1  0            999 V2000
    5.0601   -1.0675    0.0000 O   0  0  0  0  0  0  0  0  0  0  0  0
    7.1467   -1.2389    0.0000 O   0  0  0  0  0  0  0  0  0  0  0  0
    5.3959   -1.5975    0.0000 O   0  0  0  0  0  0  0  0  0  0  0  0
    2.9918   -1.2389    0.0000 O   0  0  0  0  0  0  0  0  0  0  0  0
    1.7096   -0.4986    0.0000 O   0  0  0  0  0  0  0  0  0  0  0  0
    5.8943    2.3593    0.0000 N   0  0  0  0  0  0  0  0  0  0  0  0
    5.4817    0.2158    0.0000 C   0  0  0  0  0  0  0  0  0  0  0  0
    5.8943    0.9303    0.0000 C   0  0  0  0  0  0  0  0  0  0  0  0
    5.8943   -0.4986    0.0000 C   0  0  1  0  0  0  0  0  0  0  0  0
    6.7193   -0.4986    0.0000 C   0  0  0  0  0  0  0  0  0  0  0  0
    5.4817    1.6448    0.0000 C   0  0  0  0  0  0  0  0  0  0  0  0
    6.4901    0.5459    0.0000 C   0  0  0  0  0  0  0  0  0  0  0  0
    6.1784   -0.0774    0.0000 C   0  0  2  0  0  0  0  0  0  0  0  0
    5.0693    0.9303    0.0000 C   0  0  0  0  0  0  0  0  0  0  0  0
    4.6568    0.2158    0.0000 C   0  0  0  0  0  0  0  0  0  0  0  0
    6.7193    0.9303    0.0000 C   0  0  0  0  0  0  0  0  0  0  0  0
    4.6568    1.6448    0.0000 C   0  0  0  0  0  0  0  0  0  0  0  0
    7.1318    0.2158    0.0000 C   0  0  0  0  0  0  0  0  0  0  0  0
    5.0601    2.5075    0.0000 C   0  0  0  0  0  0  0  0  0  0  0  0
    5.7872   -0.8375    0.0000 C   0  0  1  0  0  0  0  0  0  0  0  0
    4.2442    0.9303    0.0000 C   0  0  0  0  0  0  0  0  0  0  0  0
    4.2442   -0.4986    0.0000 C   0  0  0  0  0  0  0  0  0  0  0  0
    6.4679   -1.3548    0.0000 C   0  0  0  0  0  0  0  0  0  0  0  0
    6.6692    2.7200    0.0000 C   0  0  0  0  0  0  0  0  0  0  0  0
    3.4192    0.9303    0.0000 C   0  0  0  0  0  0  0  0  0  0  0  0
    5.0272   -0.4462    0.0000 C   0  0  0  0  0  0  0  0  0  0  0  0
    3.4192   -0.4986    0.0000 C   0  0  0  0  0  0  0  0  0  0  0  0
    3.0067    0.2158    0.0000 C   0  0  0  0  0  0  0  0  0  0  0  0
    8.0015   -1.2389    0.0000 C   0  0  0  0  0  0  0  0  0  0  0  0
    6.3601   -2.2028    0.0000 C   0  0  0  0  0  0  0  0  0  0  0  0
    7.0407   -2.7200    0.0000 C   0  0  0  0  0  0  0  0  0  0  0  0
    2.1370   -1.2389    0.0000 C   0  0  0  0  0  0  0  0  0  0  0  0
    1.7096   -1.9792    0.0000 C   0  0  0  0  0  0  0  0  0  0  0  0
    6.3956   -0.9637    0.0000 H   0  0  0  0  0  0  0  0  0  0  0  0
    5.5686    0.2320    0.0000 H   0  0  0  0  0  0  0  0  0  0  0  0
  1  9  1  0  0  0  0
  1 22  1  0  0  0  0
  2 10  1  0  0  0  0
  2 29  1  0  0  0  0
 20  3  1  1  0  0  0
  4 27  1  0  0  0  0
  4 32  1  0  0  0  0
  5 32  2  0  0  0  0
  6 11  1  0  0  0  0
  6 19  1  0  0  0  0
  6 24  1  0  0  0  0
  7  8  1  0  0  0  0
  7  9  1  0  0  0  0
  7 14  1  0  0  0  0
  7 15  1  0  0  0  0
  8 11  1  0  0  0  0
  8 12  1  0  0  0  0
  8 16  1  0  0  0  0
  9 10  1  0  0  0  0
  9 34  1  6  0  0  0
 10 13  1  0  0  0  0
 10 18  1  0  0  0  0
 11 17  1  0  0  0  0
 12 13  1  0  0  0  0
 13 20  1  0  0  0  0
 13 35  1  6  0  0  0
 14 19  1  0  0  0  0
 15 21  2  0  0  0  0
 15 22  1  0  0  0  0
 16 18  2  0  0  0  0
 17 21  1  0  0  0  0
 20 23  1  0  0  0  0
 20 26  1  0  0  0  0
 21 25  1  0  0  0  0
 22 27  2  0  0  0  0
 23 30  1  0  0  0  0
 25 28  2  0  0  0  0
 27 28  1  0  0  0  0
 30 31  1  0  0  0  0
 32 33  1  0  0  0  0
M  END
> <DRUGBANK_ID>
DB01469

> <DRUG_GROUPS>
experimental; illicit

> <GENERIC_NAME>
Acetorphine

> <CHEMICAL_FORMULA>
C27H35NO5

> <MOLECULAR_WEIGHT>
453.5705

> <EXACT_MASS>
453.251523235

> <IUPAC_NAME>
(14S,19R)-19-[(2R)-2-hydroxypentan-2-yl]-15-methoxy-3-methyl-13-oxa-3-azahexacyclo[13.2.2.1^{2,8}.0^{1,6}.0^{6,14}.0^{7,12}]icosa-7,9,11,16-tetraen-11-yl acetate

> <IUPAC_TRADITIONAL_NAME>
acetorphine

> <INCHI_IDENTIFIER>
InChI=1S/C27H35NO5/c1-6-9-24(3,30)19-15-25-10-11-27(19,31-5)23-26(25)12-13-28(4)20(25)14-17-7-8-18(32-16(2)29)22(33-23)21(17)26/h7-8,10-11,19-20,23,30H,6,9,12-15H2,1-5H3/t19-,20?,23+,24-,25?,26?,27?/m1/s1

> <INCHI_KEY>
InChIKey=LFYBMMHFJIAKFE-XRACTLHESA-N

> <SMILES>
[H][C@]12OC3=C(OC(C)=O)C=CC4=C3C11CCN(C)C(C4)C11C[C@]([H])([C@](C)(O)CCC)C2(OC)C=C1

> <JCHEM_ACCEPTOR_COUNT>
5

> <JCHEM_DONOR_COUNT>
1

> <JCHEM_ACIDIC_PKA>
14.68

> <JCHEM_BASIC_PKA>
8.97

> <JCHEM_PHYSIOLOGICAL_CHARGE>
1

> <ALOGPS_LOGP>
3.59

> <JCHEM_LOGP>
2.66

> <ALOGPS_LOGS>
-4.4

> <JCHEM_POLARIZABILITY>
50.19

> <JCHEM_POLAR_SURFACE_AREA>
68.23

> <JCHEM_REFRACTIVITY>
125.67

> <JCHEM_ROTATABLE_BOND_COUNT>
6

> <ALOGPS_SOLUBILITY>
1.97e-02 g/l __ 

$$$$
