1587
  Mrv0541 02231215342D          

 26 29  0  0  1  0            999 V2000
    1.6499   -0.7440    0.0000 Cl   0  0  0  0  0  0  0  0  0  0  0  0
    4.3623   -1.0472    0.0000 O    0  0  0  0  0  0  0  0  0  0  0  0
    6.6394    0.0601    0.0000 O    0  0  0  0  0  0  0  0  0  0  0  0
    5.2101    2.3592    0.0000 O    0  0  0  0  0  0  0  0  0  0  0  0
    5.1830    0.1666    0.0000 N    0  0  0  0  0  0  0  0  0  0  0  0
    4.0272    1.6159    0.0000 N    0  0  0  0  0  0  0  0  0  0  0  0
    4.4397   -0.1914    0.0000 C    0  0  0  0  0  0  0  0  0  0  0  0
    3.6964    0.1666    0.0000 C    0  0  0  0  0  0  0  0  0  0  0  0
    3.9750   -0.8730    0.0000 C    0  0  0  0  0  0  0  0  0  0  0  0
    5.3665    0.9709    0.0000 C    0  0  0  0  0  0  0  0  0  0  0  0
    3.5129    0.9709    0.0000 C    0  0  0  0  0  0  0  0  0  0  0  0
    5.9004   -0.3065    0.0000 C    0  0  0  0  0  0  0  0  0  0  0  0
    4.8521    1.6159    0.0000 C    0  0  0  0  0  0  0  0  0  0  0  0
    3.0756   -0.4276    0.0000 C    0  0  0  0  0  0  0  0  0  0  0  0
    5.0685   -1.5367    0.0000 C    0  0  0  0  0  0  0  0  0  0  0  0
    5.8428   -1.1639    0.0000 C    0  0  0  0  0  0  0  0  0  0  0  0
    2.6957    1.2368    0.0000 C    0  0  0  0  0  0  0  0  0  0  0  0
    4.3329   -1.6163    0.0000 C    0  0  0  0  0  0  0  0  0  0  0  0
    3.1523   -0.8114    0.0000 C    0  0  0  0  0  0  0  0  0  0  0  0
    3.6693    2.3592    0.0000 C    0  0  0  0  0  0  0  0  0  0  0  0
    2.2525   -0.1806    0.0000 C    0  0  0  0  0  0  0  0  0  0  0  0
    2.0613    0.6572    0.0000 C    0  0  0  0  0  0  0  0  0  0  0  0
    5.0037   -2.3592    0.0000 C    0  0  0  0  0  0  0  0  0  0  0  0
    3.8682   -2.2979    0.0000 C    0  0  0  0  0  0  0  0  0  0  0  0
    2.6875   -1.4929    0.0000 C    0  0  0  0  0  0  0  0  0  0  0  0
    3.0455   -2.2362    0.0000 C    0  0  0  0  0  0  0  0  0  0  0  0
  1 21  1  0  0  0  0
  2  7  1  0  0  0  0
  2 15  1  0  0  0  0
  3 12  2  0  0  0  0
  4 13  2  0  0  0  0
  5  7  1  0  0  0  0
  5 10  1  0  0  0  0
  5 12  1  0  0  0  0
  6 11  1  0  0  0  0
  6 13  1  0  0  0  0
  6 20  1  0  0  0  0
  7  8  1  0  0  0  0
  7  9  1  0  0  0  0
  8 11  2  0  0  0  0
  8 14  1  0  0  0  0
  9 18  2  0  0  0  0
  9 19  1  0  0  0  0
 10 13  1  0  0  0  0
 11 17  1  0  0  0  0
 12 16  1  0  0  0  0
 14 21  2  0  0  0  0
 15 16  2  0  0  0  0
 15 23  1  0  0  0  0
 17 22  2  0  0  0  0
 18 24  1  0  0  0  0
 19 25  2  0  0  0  0
 21 22  1  0  0  0  0
 24 26  2  0  0  0  0
 25 26  1  0  0  0  0
M  END
> <DRUGBANK_ID>
DB01587

> <DRUG_GROUPS>
approved

> <GENERIC_NAME>
Ketazolam

> <CHEMICAL_FORMULA>
C20H17ClN2O3

> <MOLECULAR_WEIGHT>
368.814

> <EXACT_MASS>
368.092770127

> <IUPAC_NAME>
14-chloro-4,10-dimethyl-2-phenyl-3-oxa-7,10-diazatricyclo[9.4.0.0^{2,7}]pentadeca-1(11),4,12,14-tetraene-6,9-dione

> <IUPAC_TRADITIONAL_NAME>
14-chloro-4,10-dimethyl-2-phenyl-3-oxa-7,10-diazatricyclo[9.4.0.0^{2,7}]pentadeca-1(11),4,12,14-tetraene-6,9-dione

> <INCHI_IDENTIFIER>
InChI=1S/C20H17ClN2O3/c1-13-10-18(24)23-12-19(25)22(2)17-9-8-15(21)11-16(17)20(23,26-13)14-6-4-3-5-7-14/h3-11H,12H2,1-2H3

> <INCHI_KEY>
InChIKey=PWAJCNITSBZRBL-UHFFFAOYSA-N

> <SMILES>
CN1C2=C(C=C(Cl)C=C2)C2(OC(C)=CC(=O)N2CC1=O)C1=CC=CC=C1

> <JCHEM_ACCEPTOR_COUNT>
3

> <JCHEM_DONOR_COUNT>
0

> <JCHEM_ACIDIC_PKA>
14.2

> <JCHEM_BASIC_PKA>
-0.89

> <JCHEM_PHYSIOLOGICAL_CHARGE>
0

> <ALOGPS_LOGP>
2.6

> <JCHEM_LOGP>
3.01

> <ALOGPS_LOGS>
-3.6

> <JCHEM_POLARIZABILITY>
36.96

> <JCHEM_POLAR_SURFACE_AREA>
49.85

> <JCHEM_REFRACTIVITY>
99.78

> <JCHEM_ROTATABLE_BOND_COUNT>
1

> <ALOGPS_SOLUBILITY>
8.39e-02 g/l __ 

$$$$
