1101
  Mrv0541 02231215142D          

 25 26  0  0  1  0            999 V2000
    5.9370   -0.0354    0.0000 F   0  0  0  0  0  0  0  0  0  0  0  0
    5.1754   -2.9954    0.0000 O   0  0  0  0  0  0  0  0  0  0  0  0
    3.0559   -2.7404    0.0000 O   0  0  0  0  0  0  0  0  0  0  0  0
    3.6105   -4.4474    0.0000 O   0  0  0  0  0  0  0  0  0  0  0  0
    3.0791   -1.6854    0.0000 O   0  0  0  0  0  0  0  0  0  0  0  0
    3.7935    2.0272    0.0000 O   0  0  0  0  0  0  0  0  0  0  0  0
    3.0791    0.7896    0.0000 O   0  0  0  0  0  0  0  0  0  0  0  0
    4.5080   -1.6854    0.0000 N   0  0  0  0  0  0  0  0  0  0  0  0
    3.7935   -0.4479    0.0000 N   0  0  0  0  0  0  0  0  0  0  0  0
    4.5080    0.7896    0.0000 N   0  0  0  0  0  0  0  0  0  0  0  0
    3.8405   -2.9954    0.0000 C   0  0  2  0  0  0  0  0  0  0  0  0
    4.0955   -3.7800    0.0000 C   0  0  1  0  0  0  0  0  0  0  0  0
    4.5080   -2.5104    0.0000 C   0  0  1  0  0  0  0  0  0  0  0  0
    4.9205   -3.7800    0.0000 C   0  0  1  0  0  0  0  0  0  0  0  0
    5.4054   -4.4474    0.0000 C   0  0  0  0  0  0  0  0  0  0  0  0
    5.2224   -1.2729    0.0000 C   0  0  0  0  0  0  0  0  0  0  0  0
    3.7935   -1.2729    0.0000 C   0  0  0  0  0  0  0  0  0  0  0  0
    5.2224   -0.4479    0.0000 C   0  0  0  0  0  0  0  0  0  0  0  0
    4.5080   -0.0354    0.0000 C   0  0  0  0  0  0  0  0  0  0  0  0
    2.3645    3.6772    0.0000 C   0  0  0  0  0  0  0  0  0  0  0  0
    3.0791    3.2647    0.0000 C   0  0  0  0  0  0  0  0  0  0  0  0
    2.3645    4.5022    0.0000 C   0  0  0  0  0  0  0  0  0  0  0  0
    3.0791    2.4397    0.0000 C   0  0  0  0  0  0  0  0  0  0  0  0
    3.7935    1.2021    0.0000 C   0  0  0  0  0  0  0  0  0  0  0  0
    1.6500    4.9147    0.0000 C   0  0  0  0  0  0  0  0  0  0  0  0
  1 18  1  0  0  0  0
  2 13  1  0  0  0  0
  2 14  1  0  0  0  0
 11  3  1  1  0  0  0
 12  4  1  1  0  0  0
  5 17  2  0  0  0  0
  6 23  1  0  0  0  0
  6 24  1  0  0  0  0
  7 24  2  0  0  0  0
 13  8  1  6  0  0  0
  8 16  1  0  0  0  0
  8 17  1  0  0  0  0
  9 17  1  0  0  0  0
  9 19  2  0  0  0  0
 10 19  1  0  0  0  0
 10 24  1  0  0  0  0
 11 12  1  0  0  0  0
 11 13  1  0  0  0  0
 12 14  1  0  0  0  0
 14 15  1  6  0  0  0
 16 18  2  0  0  0  0
 18 19  1  0  0  0  0
 20 21  1  0  0  0  0
 20 22  1  0  0  0  0
 21 23  1  0  0  0  0
 22 25  1  0  0  0  0
M  END
> <DRUGBANK_ID>
DB01101

> <DRUG_GROUPS>
approved; investigational

> <GENERIC_NAME>
Capecitabine

> <BRANDS>
Xeloda

> <CHEMICAL_FORMULA>
C15H22FN3O6

> <MOLECULAR_WEIGHT>
359.3501

> <EXACT_MASS>
359.149263656

> <IUPAC_NAME>
pentyl N-{1-[(2R,3R,4S,5R)-3,4-dihydroxy-5-methyloxolan-2-yl]-5-fluoro-2-oxo-1,2-dihydropyrimidin-4-yl}carbamate

> <IUPAC_TRADITIONAL_NAME>
capecitabine

> <INCHI_IDENTIFIER>
InChI=1S/C15H22FN3O6/c1-3-4-5-6-24-15(23)18-12-9(16)7-19(14(22)17-12)13-11(21)10(20)8(2)25-13/h7-8,10-11,13,20-21H,3-6H2,1-2H3,(H,17,18,22,23)/t8-,10-,11-,13-/m1/s1

> <INCHI_KEY>
InChIKey=GAGWJHPBXLXJQN-UORFTKCHSA-N

> <SMILES>
CCCCCOC(=O)NC1=NC(=O)N(C=C1F)[C@@H]1O[C@H](C)[C@@H](O)[C@H]1O

> <JCHEM_ACCEPTOR_COUNT>
6

> <JCHEM_DONOR_COUNT>
3

> <JCHEM_ACIDIC_PKA>
8.23

> <JCHEM_BASIC_PKA>
-3.6

> <JCHEM_PHYSIOLOGICAL_CHARGE>
0

> <ALOGPS_LOGP>
1.17

> <JCHEM_LOGP>
0.77

> <ALOGPS_LOGS>
-3.2

> <JCHEM_POLARIZABILITY>
35.81

> <JCHEM_POLAR_SURFACE_AREA>
120.69

> <JCHEM_REFRACTIVITY>
82.75

> <JCHEM_ROTATABLE_BOND_COUNT>
7

> <ALOGPS_SOLUBILITY>
2.48e-01 g/l __ 

$$$$
