
  Mrv0541 02231215432D          

 48 51  0  0  1  0            999 V2000
    2.5402   -2.5611    0.0000 C   0  0  0  0  0  0  0  0  0  0  0  0
    1.8603   -3.0284    0.0000 O   0  0  0  0  0  0  0  0  0  0  0  0
    1.1157   -2.6732    0.0000 C   0  0  0  0  0  0  0  0  0  0  0  0
    1.0509   -1.8507    0.0000 C   0  0  2  0  0  0  0  0  0  0  0  0
    0.3475   -1.4197    0.0000 C   0  0  0  0  0  0  0  0  0  0  0  0
    0.5401   -0.6175    0.0000 C   0  0  0  0  0  0  0  0  0  0  0  0
    1.3625   -0.5527    0.0000 C   0  0  2  0  0  0  0  0  0  0  0  0
    1.6783    0.2095    0.0000 C   0  0  1  0  0  0  0  0  0  0  0  0
    1.0949    0.7928    0.0000 C   0  0  0  0  0  0  0  0  0  0  0  0
    2.4405    0.5252    0.0000 C   0  0  2  0  0  0  0  0  0  0  0  0
    2.4405    1.3502    0.0000 O   0  0  0  0  0  0  0  0  0  0  0  0
    3.2027    0.2095    0.0000 C   0  0  1  0  0  0  0  0  0  0  0  0
    3.7860    0.7928    0.0000 O   0  0  0  0  0  0  0  0  0  0  0  0
    3.5725    1.5897    0.0000 C   0  0  1  0  0  0  0  0  0  0  0  0
    2.7756    1.8032    0.0000 O   0  0  0  0  0  0  0  0  0  0  0  0
    2.5621    2.6001    0.0000 C   0  0  1  0  0  0  0  0  0  0  0  0
    1.7652    2.8136    0.0000 C   0  0  0  0  0  0  0  0  0  0  0  0
    1.1818    2.2303    0.0000 O   0  0  0  0  0  0  0  0  0  0  0  0
    0.3849    2.4438    0.0000 C   0  0  0  0  0  0  0  0  0  0  0  0
    0.5985    3.2407    0.0000 C   0  0  0  0  0  0  0  0  0  0  0  0
    0.1714    1.6469    0.0000 C   0  0  0  0  0  0  0  0  0  0  0  0
   -0.4119    2.6573    0.0000 C   0  0  0  0  0  0  0  0  0  0  0  0
   -0.9953    2.0740    0.0000 C   0  0  0  0  0  0  0  0  0  0  0  0
    3.1454    3.1835    0.0000 C   0  0  2  0  0  0  0  0  0  0  0  0
    2.9319    3.9804    0.0000 O   0  0  0  0  0  0  0  0  0  0  0  0
    3.9423    2.9700    0.0000 C   0  0  1  0  0  0  0  0  0  0  0  0
    4.5257    3.5533    0.0000 O   0  0  0  0  0  0  0  0  0  0  0  0
    4.3122    4.3502    0.0000 C   0  0  0  0  0  0  0  0  0  0  0  0
    3.5153    4.5637    0.0000 C   0  0  0  0  0  0  0  0  0  0  0  0
    4.8955    4.9336    0.0000 O   0  0  0  0  0  0  0  0  0  0  0  0
    4.1559    2.1731    0.0000 C   0  0  2  0  0  0  0  0  0  0  0  0
    4.9528    1.9595    0.0000 O   0  0  0  0  0  0  0  0  0  0  0  0
    3.5184   -0.5527    0.0000 C   0  0  0  0  0  0  0  0  0  0  0  0
    4.3408   -0.6175    0.0000 C   0  0  0  0  0  0  0  0  0  0  0  0
    4.5334   -1.4197    0.0000 C   0  0  0  0  0  0  0  0  0  0  0  0
    3.8300   -1.8507    0.0000 C   0  0  1  0  0  0  0  0  0  0  0  0
    3.7653   -2.6732    0.0000 O   0  0  0  0  0  0  0  0  0  0  0  0
    3.2027   -1.3149    0.0000 C   0  0  1  0  0  0  0  0  0  0  0  0
    3.0736   -2.1298    0.0000 C   0  0  0  0  0  0  0  0  0  0  0  0
    2.4405   -1.6307    0.0000 C   0  0  0  0  0  0  0  0  0  0  0  0
    1.6783   -1.3149    0.0000 C   0  0  0  0  0  0  0  0  0  0  0  0
    4.8766    0.0099    0.0000 C   0  0  2  0  0  0  0  0  0  0  0  0
    4.6012    0.7875    0.0000 C   0  0  0  0  0  0  0  0  0  0  0  0
    5.6878   -0.1405    0.0000 C   0  0  0  0  0  0  0  0  0  0  0  0
    5.9632   -0.9182    0.0000 O   0  0  0  0  0  0  0  0  0  0  0  0
    6.7744   -1.0685    0.0000 C   0  0  0  0  0  0  0  0  0  0  0  0
    7.3102   -0.4412    0.0000 C   0  0  0  0  0  0  0  0  0  0  0  0
    7.0498   -1.8462    0.0000 O   0  0  0  0  0  0  0  0  0  0  0  0
  1  2  1  0  0  0  0
  2  3  1  0  0  0  0
  4  3  1  6  0  0  0
  4  5  1  0  0  0  0
  5  6  1  0  0  0  0
  6  7  1  0  0  0  0
  7  8  1  0  0  0  0
  8  9  1  1  0  0  0
  8 10  1  0  0  0  0
 10 11  1  6  0  0  0
 10 12  1  0  0  0  0
 12 13  1  1  0  0  0
 14 13  1  1  0  0  0
 14 15  1  0  0  0  0
 15 16  1  0  0  0  0
 16 17  1  1  0  0  0
 17 18  1  0  0  0  0
 18 19  1  0  0  0  0
 19 20  1  0  0  0  0
 19 21  1  0  0  0  0
 19 22  1  0  0  0  0
 22 23  2  0  0  0  0
 16 24  1  0  0  0  0
 24 25  1  6  0  0  0
 24 26  1  0  0  0  0
 26 27  1  1  0  0  0
 27 28  1  0  0  0  0
 28 29  1  0  0  0  0
 28 30  2  0  0  0  0
 26 31  1  0  0  0  0
 14 31  1  0  0  0  0
 31 32  1  6  0  0  0
 12 33  1  0  0  0  0
 33 34  2  0  0  0  0
 34 35  1  0  0  0  0
 35 36  1  0  0  0  0
 36 37  1  1  0  0  0
 36 38  1  0  0  0  0
 33 38  1  0  0  0  0
 38 39  1  1  0  0  0
 38 40  1  0  0  0  0
 40 41  2  0  0  0  0
  4 41  1  0  0  0  0
  7 41  1  6  0  0  0
 34 42  1  0  0  0  0
 42 43  1  6  0  0  0
 42 44  1  0  0  0  0
 44 45  1  0  0  0  0
 45 46  1  0  0  0  0
 46 47  1  0  0  0  0
 46 48  2  0  0  0  0
M  END
> <DRUGBANK_ID>
DB01780

> <DRUG_GROUPS>
experimental

> <GENERIC_NAME>
Fusicoccin

> <CHEMICAL_FORMULA>
C36H56O12

> <MOLECULAR_WEIGHT>
680.8226

> <EXACT_MASS>
680.377177256

> <IUPAC_NAME>
(2S)-2-[(3R,4R,8S,9S,10R,11R,14R)-8-{[(2S,3S,4R,5S,6S)-4-(acetyloxy)-3,5-dihydroxy-6-{[(2-methylbut-3-en-2-yl)oxy]methyl}oxan-2-yl]oxy}-4,9-dihydroxy-14-(methoxymethyl)-3,10-dimethyltricyclo[9.3.0.0^{3,7}]tetradeca-1,6-dien-6-yl]propyl acetate

> <IUPAC_TRADITIONAL_NAME>
(2S)-2-[(3R,4R,8S,9S,10R,11R,14R)-8-{[(2S,3S,4R,5S,6S)-4-(acetyloxy)-3,5-dihydroxy-6-{[(2-methylbut-3-en-2-yl)oxy]methyl}oxan-2-yl]oxy}-4,9-dihydroxy-14-(methoxymethyl)-3,10-dimethyltricyclo[9.3.0.0^{3,7}]tetradeca-1,6-dien-6-yl]propyl acetate

> <INCHI_IDENTIFIER>
InChI=1S/C36H56O12/c1-10-35(6,7)45-17-26-30(41)33(46-21(5)38)31(42)34(47-26)48-32-28-24(18(2)15-44-20(4)37)13-27(39)36(28,8)14-25-22(16-43-9)11-12-23(25)19(3)29(32)40/h10,14,18-19,22-23,26-27,29-34,39-42H,1,11-13,15-17H2,2-9H3/b25-14-/t18-,19-,22+,23-,26+,27-,29+,30+,31+,32+,33-,34-,36+/m1/s1

> <INCHI_KEY>
InChIKey=KXTYBXCEQOANSX-MQYZIMMHSA-N

> <SMILES>
COC[C@@H]1CC[C@@H]2[C@@H](C)[C@H](O)[C@@H](O[C@H]3O[C@@H](COC(C)(C)C=C)[C@H](O)[C@@H](OC(C)=O)[C@@H]3O)C3=C(C[C@@H](O)[C@]3(C)\C=C1/2)[C@H](C)COC(C)=O

> <JCHEM_ACCEPTOR_COUNT>
10

> <JCHEM_DONOR_COUNT>
4

> <JCHEM_ACIDIC_PKA>
12.24

> <JCHEM_BASIC_PKA>
-3

> <JCHEM_PHYSIOLOGICAL_CHARGE>
0

> <ALOGPS_LOGP>
2.42

> <JCHEM_LOGP>
1.35

> <ALOGPS_LOGS>
-3.9

> <JCHEM_POLARIZABILITY>
73.73

> <JCHEM_POLAR_SURFACE_AREA>
170.44

> <JCHEM_REFRACTIVITY>
175.76

> <JCHEM_ROTATABLE_BOND_COUNT>
14

> <ALOGPS_SOLUBILITY>
8.49e-02 g/l __ 

$$$$
