DHC
  Mrv0541 02231215472D          

 13 13  0  0  0  0            999 V2000
    3.0952    0.8773    0.0000 C   0  0  0  0  0  0  0  0  0  0  0  0
    3.0952    1.7023    0.0000 O   0  0  0  0  0  0  0  0  0  0  0  0
    2.3808    0.4648    0.0000 C   0  0  0  0  0  0  0  0  0  0  0  0
    2.3808   -0.3602    0.0000 C   0  0  0  0  0  0  0  0  0  0  0  0
    1.6663   -0.7727    0.0000 C   0  0  0  0  0  0  0  0  0  0  0  0
    1.6663   -1.5977    0.0000 C   0  0  0  0  0  0  0  0  0  0  0  0
    0.9518   -2.0102    0.0000 C   0  0  0  0  0  0  0  0  0  0  0  0
    0.2374   -1.5977    0.0000 C   0  0  0  0  0  0  0  0  0  0  0  0
    0.2374   -0.7727    0.0000 C   0  0  0  0  0  0  0  0  0  0  0  0
    0.9518   -0.3602    0.0000 C   0  0  0  0  0  0  0  0  0  0  0  0
   -0.4771   -2.0102    0.0000 O   0  0  0  0  0  0  0  0  0  0  0  0
    0.9518   -2.8352    0.0000 O   0  0  0  0  0  0  0  0  0  0  0  0
    3.8097    0.4648    0.0000 O   0  0  0  0  0  0  0  0  0  0  0  0
  1  2  2  0  0  0  0
  1  3  1  0  0  0  0
  1 13  1  0  0  0  0
  3  4  2  0  0  0  0
  4  5  1  0  0  0  0
  5  6  2  0  0  0  0
  5 10  1  0  0  0  0
  6  7  1  0  0  0  0
  7  8  2  0  0  0  0
  7 12  1  0  0  0  0
  8  9  1  0  0  0  0
  8 11  1  0  0  0  0
  9 10  2  0  0  0  0
M  END
> <DRUGBANK_ID>
DB01880

> <DRUG_GROUPS>
experimental

> <GENERIC_NAME>
3,4-Dihydroxycinnamic Acid

> <CHEMICAL_FORMULA>
C9H8O4

> <MOLECULAR_WEIGHT>
180.1574

> <EXACT_MASS>
180.042258744

> <IUPAC_NAME>
(2E)-3-(3,4-dihydroxyphenyl)prop-2-enoic acid

> <IUPAC_TRADITIONAL_NAME>
caffeic acid

> <INCHI_IDENTIFIER>
InChI=1S/C9H8O4/c10-7-3-1-6(5-8(7)11)2-4-9(12)13/h1-5,10-11H,(H,12,13)/b4-2+

> <INCHI_KEY>
InChIKey=QAIPRVGONGVQAS-DUXPYHPUSA-N

> <SMILES>
OC(=O)\C=C\C1=CC(O)=C(O)C=C1

> <JCHEM_ACCEPTOR_COUNT>
4

> <JCHEM_DONOR_COUNT>
3

> <JCHEM_ACIDIC_PKA>
3.64

> <JCHEM_BASIC_PKA>
-6.3

> <JCHEM_PHYSIOLOGICAL_CHARGE>
-1

> <ALOGPS_LOGP>
1.67

> <JCHEM_LOGP>
1.53

> <ALOGPS_LOGS>
-2

> <JCHEM_POLARIZABILITY>
17.34

> <JCHEM_POLAR_SURFACE_AREA>
77.76

> <JCHEM_REFRACTIVITY>
47.02

> <JCHEM_ROTATABLE_BOND_COUNT>
2

> <ALOGPS_SOLUBILITY>
1.61e+00 g/l __ 

$$$$
