1103
  Mrv0541 02231215152D          

 28 30  0  0  1  0            999 V2000
    2.3097   -3.3052    0.0000 Cl   0  0  0  0  0  0  0  0  0  0  0  0
    8.1336   -1.6156    0.0000 O    0  0  0  0  0  0  0  0  0  0  0  0
    3.0786    2.0765    0.0000 N    0  0  0  0  0  0  0  0  0  0  0  0
    5.2216   -0.8106    0.0000 N    0  0  0  0  0  0  0  0  0  0  0  0
    5.2216   -3.2853    0.0000 N    0  0  0  0  0  0  0  0  0  0  0  0
    4.5073   -0.3981    0.0000 C    0  0  0  0  0  0  0  0  0  0  0  0
    4.5073    0.4267    0.0000 C    0  0  0  0  0  0  0  0  0  0  0  0
    3.7929    0.8392    0.0000 C    0  0  0  0  0  0  0  0  0  0  0  0
    3.7929    1.6641    0.0000 C    0  0  0  0  0  0  0  0  0  0  0  0
    5.2216   -1.6355    0.0000 C    0  0  0  0  0  0  0  0  0  0  0  0
    3.7929   -0.8106    0.0000 C    0  0  0  0  0  0  0  0  0  0  0  0
    3.0786    2.9014    0.0000 C    0  0  0  0  0  0  0  0  0  0  0  0
    2.3641    1.6641    0.0000 C    0  0  0  0  0  0  0  0  0  0  0  0
    5.9361   -2.0479    0.0000 C    0  0  0  0  0  0  0  0  0  0  0  0
    4.5073   -2.0479    0.0000 C    0  0  0  0  0  0  0  0  0  0  0  0
    5.9361   -2.8728    0.0000 C    0  0  0  0  0  0  0  0  0  0  0  0
    4.5073   -2.8728    0.0000 C    0  0  0  0  0  0  0  0  0  0  0  0
    2.3641    3.3139    0.0000 C    0  0  0  0  0  0  0  0  0  0  0  0
    1.6498    2.0765    0.0000 C    0  0  0  0  0  0  0  0  0  0  0  0
    6.6734   -1.6069    0.0000 C    0  0  0  0  0  0  0  0  0  0  0  0
    3.7699   -1.6069    0.0000 C    0  0  0  0  0  0  0  0  0  0  0  0
    6.6734   -3.3139    0.0000 C    0  0  0  0  0  0  0  0  0  0  0  0
    3.7699   -3.3139    0.0000 C    0  0  0  0  0  0  0  0  0  0  0  0
    7.4209   -2.0308    0.0000 C    0  0  0  0  0  0  0  0  0  0  0  0
    7.4209   -2.8900    0.0000 C    0  0  0  0  0  0  0  0  0  0  0  0
    3.0225   -2.0308    0.0000 C    0  0  0  0  0  0  0  0  0  0  0  0
    3.0225   -2.8900    0.0000 C    0  0  0  0  0  0  0  0  0  0  0  0
    8.8496   -2.0252    0.0000 C    0  0  0  0  0  0  0  0  0  0  0  0
  1 27  1  0  0  0  0
  2 24  1  0  0  0  0
  2 28  1  0  0  0  0
  3  9  1  0  0  0  0
  3 12  1  0  0  0  0
  3 13  1  0  0  0  0
  4  6  1  0  0  0  0
  4 10  1  0  0  0  0
  5 16  2  0  0  0  0
  5 17  1  0  0  0  0
  6  7  1  0  0  0  0
  6 11  1  0  0  0  0
  7  8  1  0  0  0  0
  8  9  1  0  0  0  0
 10 14  2  0  0  0  0
 10 15  1  0  0  0  0
 12 18  1  0  0  0  0
 13 19  1  0  0  0  0
 14 16  1  0  0  0  0
 14 20  1  0  0  0  0
 15 17  2  0  0  0  0
 15 21  1  0  0  0  0
 16 22  1  0  0  0  0
 17 23  1  0  0  0  0
 20 24  2  0  0  0  0
 21 26  2  0  0  0  0
 22 25  2  0  0  0  0
 23 27  2  0  0  0  0
 24 25  1  0  0  0  0
 26 27  1  0  0  0  0
M  END
> <DRUGBANK_ID>
DB01103

> <DRUG_GROUPS>
approved

> <GENERIC_NAME>
Quinacrine

> <SYNONYMS>
Mepacrine

> <SALTS>
Quinacrine Dihydrochloride

> <BRANDS>
Atabrine

> <CHEMICAL_FORMULA>
C23H30ClN3O

> <MOLECULAR_WEIGHT>
399.957

> <EXACT_MASS>
399.207740304

> <IUPAC_NAME>
{4-[(6-chloro-2-methoxyacridin-9-yl)amino]pentyl}diethylamine

> <IUPAC_TRADITIONAL_NAME>
quinacrine

> <INCHI_IDENTIFIER>
InChI=1S/C23H30ClN3O/c1-5-27(6-2)13-7-8-16(3)25-23-19-11-9-17(24)14-22(19)26-21-12-10-18(28-4)15-20(21)23/h9-12,14-16H,5-8,13H2,1-4H3,(H,25,26)

> <INCHI_KEY>
InChIKey=GPKJTRJOBQGKQK-UHFFFAOYSA-N

> <SMILES>
CCN(CC)CCCC(C)NC1=C2C=C(OC)C=CC2=NC2=C1C=CC(Cl)=C2

> <JCHEM_ACCEPTOR_COUNT>
4

> <JCHEM_DONOR_COUNT>
1

> <JCHEM_BASIC_PKA>
10.33

> <JCHEM_PHYSIOLOGICAL_CHARGE>
2

> <ALOGPS_LOGP>
6.13

> <JCHEM_LOGP>
5.15

> <ALOGPS_LOGS>
-5.2

> <JCHEM_POLARIZABILITY>
46.32

> <JCHEM_POLAR_SURFACE_AREA>
37.39

> <JCHEM_REFRACTIVITY>
118.96

> <JCHEM_ROTATABLE_BOND_COUNT>
9

> <ALOGPS_SOLUBILITY>
2.39e-03 g/l __ 

$$$$
