A45
  Mrv0541 02231215492D          

 20 22  0  0  0  0            999 V2000
    3.5214    0.6363    0.0000 N   0  0  0  0  0  0  0  0  0  0  0  0
    2.8070    0.2238    0.0000 C   0  0  0  0  0  0  0  0  0  0  0  0
    2.8070   -0.6012    0.0000 N   0  0  0  0  0  0  0  0  0  0  0  0
    2.0925   -1.0137    0.0000 C   0  0  0  0  0  0  0  0  0  0  0  0
    2.0925   -1.8387    0.0000 O   0  0  0  0  0  0  0  0  0  0  0  0
    1.3780   -0.6012    0.0000 C   0  0  0  0  0  0  0  0  0  0  0  0
    0.5934   -0.8562    0.0000 N   0  0  0  0  0  0  0  0  0  0  0  0
    0.1085   -0.1887    0.0000 N   0  0  0  0  0  0  0  0  0  0  0  0
    0.5934    0.4787    0.0000 N   0  0  0  0  0  0  0  0  0  0  0  0
    1.3780    0.2238    0.0000 C   0  0  0  0  0  0  0  0  0  0  0  0
    2.0925    0.6363    0.0000 N   0  0  0  0  0  0  0  0  0  0  0  0
   -0.7165   -0.1887    0.0000 C   0  0  0  0  0  0  0  0  0  0  0  0
   -1.1290   -0.9032    0.0000 C   0  0  0  0  0  0  0  0  0  0  0  0
   -1.9540   -0.9032    0.0000 C   0  0  0  0  0  0  0  0  0  0  0  0
   -2.3665   -0.1887    0.0000 C   0  0  0  0  0  0  0  0  0  0  0  0
   -1.9540    0.5257    0.0000 C   0  0  0  0  0  0  0  0  0  0  0  0
   -1.1290    0.5257    0.0000 C   0  0  0  0  0  0  0  0  0  0  0  0
   -2.3665    1.2402    0.0000 C   0  0  0  0  0  0  0  0  0  0  0  0
   -3.1915    1.2402    0.0000 O   0  0  0  0  0  0  0  0  0  0  0  0
   -1.9540    1.9547    0.0000 O   0  0  0  0  0  0  0  0  0  0  0  0
  1  2  1  0  0  0  0
  2  3  1  0  0  0  0
  2 11  2  0  0  0  0
  3  4  2  0  0  0  0
  4  5  1  0  0  0  0
  4  6  1  0  0  0  0
  6  7  2  0  0  0  0
  6 10  1  0  0  0  0
  7  8  1  0  0  0  0
  8  9  1  0  0  0  0
  8 12  1  0  0  0  0
  9 10  2  0  0  0  0
 10 11  1  0  0  0  0
 12 13  1  0  0  0  0
 12 17  2  0  0  0  0
 13 14  2  0  0  0  0
 14 15  1  0  0  0  0
 15 16  2  0  0  0  0
 16 17  1  0  0  0  0
 16 18  1  0  0  0  0
 18 19  1  0  0  0  0
 18 20  2  0  0  0  0
M  END
> <DRUGBANK_ID>
DB01906

> <DRUG_GROUPS>
experimental

> <GENERIC_NAME>
3-(5-Amino-7-Hydroxy-[1,2,3]Triazolo[4,5-D]Pyrimidin-2-Yl)-Benzoic Acid

> <CHEMICAL_FORMULA>
C11H8N6O3

> <MOLECULAR_WEIGHT>
272.2196

> <EXACT_MASS>
272.065788152

> <IUPAC_NAME>
3-{5-amino-7-hydroxy-2H-[1,2,3]triazolo[4,5-d]pyrimidin-2-yl}benzoic acid

> <IUPAC_TRADITIONAL_NAME>
3-{5-amino-7-hydroxy-[1,2,3]triazolo[4,5-d]pyrimidin-2-yl}benzoic acid

> <INCHI_IDENTIFIER>
InChI=1S/C11H8N6O3/c12-11-13-8-7(9(18)14-11)15-17(16-8)6-3-1-2-5(4-6)10(19)20/h1-4H,(H,19,20)(H3,12,13,14,16,18)

> <INCHI_KEY>
InChIKey=KNLLRZNGRRRPEW-UHFFFAOYSA-N

> <SMILES>
NC1=NC2=NN(N=C2C(O)=N1)C1=CC(=CC=C1)C(O)=O

> <JCHEM_ACCEPTOR_COUNT>
8

> <JCHEM_DONOR_COUNT>
3

> <JCHEM_ACIDIC_PKA>
3.9

> <JCHEM_BASIC_PKA>
-1.5

> <JCHEM_PHYSIOLOGICAL_CHARGE>
-1

> <ALOGPS_LOGP>
0.02

> <JCHEM_LOGP>
1.16

> <ALOGPS_LOGS>
-2

> <JCHEM_POLARIZABILITY>
25.66

> <JCHEM_POLAR_SURFACE_AREA>
140.04

> <JCHEM_REFRACTIVITY>
81.81

> <JCHEM_ROTATABLE_BOND_COUNT>
2

> <ALOGPS_SOLUBILITY>
2.83e+00 g/l __ 

$$$$
