1168
  Mrv0541 02231215172D          

 16 16  0  0  0  0            999 V2000
    2.3645    2.0625    0.0000 O   0  0  0  0  0  0  0  0  0  0  0  0
    3.7935    2.0625    0.0000 N   0  0  0  0  0  0  0  0  0  0  0  0
    2.3645   -2.0625    0.0000 N   0  0  0  0  0  0  0  0  0  0  0  0
    2.3645   -2.8876    0.0000 N   0  0  0  0  0  0  0  0  0  0  0  0
    3.7935    2.8876    0.0000 C   0  0  0  0  0  0  0  0  0  0  0  0
    3.0791   -0.8250    0.0000 C   0  0  0  0  0  0  0  0  0  0  0  0
    3.0791    0.8250    0.0000 C   0  0  0  0  0  0  0  0  0  0  0  0
    3.0791    1.6500    0.0000 C   0  0  0  0  0  0  0  0  0  0  0  0
    3.0791   -1.6500    0.0000 C   0  0  0  0  0  0  0  0  0  0  0  0
    4.5080    3.3001    0.0000 C   0  0  0  0  0  0  0  0  0  0  0  0
    3.0791    3.3001    0.0000 C   0  0  0  0  0  0  0  0  0  0  0  0
    2.3645   -0.4125    0.0000 C   0  0  0  0  0  0  0  0  0  0  0  0
    3.7935   -0.4125    0.0000 C   0  0  0  0  0  0  0  0  0  0  0  0
    2.3645    0.4125    0.0000 C   0  0  0  0  0  0  0  0  0  0  0  0
    3.7935    0.4125    0.0000 C   0  0  0  0  0  0  0  0  0  0  0  0
    1.6500   -3.3001    0.0000 C   0  0  0  0  0  0  0  0  0  0  0  0
  1  8  2  0  0  0  0
  2  5  1  0  0  0  0
  2  8  1  0  0  0  0
  3  4  1  0  0  0  0
  3  9  1  0  0  0  0
  4 16  1  0  0  0  0
  5 10  1  0  0  0  0
  5 11  1  0  0  0  0
  6  9  1  0  0  0  0
  6 12  2  0  0  0  0
  6 13  1  0  0  0  0
  7  8  1  0  0  0  0
  7 14  2  0  0  0  0
  7 15  1  0  0  0  0
 12 14  1  0  0  0  0
 13 15  2  0  0  0  0
M  END
> <DRUGBANK_ID>
DB01168

> <DRUG_GROUPS>
approved

> <GENERIC_NAME>
Procarbazine

> <SYNONYMS>
Procarbazin; Procarbazina; Procarbazinum

> <SALTS>
Procarbazine hydrochloride

> <BRANDS>
Indicarb; Matulane; Natulan

> <CHEMICAL_FORMULA>
C12H19N3O

> <MOLECULAR_WEIGHT>
221.2988

> <EXACT_MASS>
221.152812245

> <IUPAC_NAME>
4-[(2-methylhydrazin-1-yl)methyl]-N-(propan-2-yl)benzamide

> <IUPAC_TRADITIONAL_NAME>
procarbazine

> <INCHI_IDENTIFIER>
InChI=1S/C12H19N3O/c1-9(2)15-12(16)11-6-4-10(5-7-11)8-14-13-3/h4-7,9,13-14H,8H2,1-3H3,(H,15,16)

> <INCHI_KEY>
InChIKey=CPTBDICYNRMXFX-UHFFFAOYSA-N

> <SMILES>
CNNCC1=CC=C(C=C1)C(=O)NC(C)C

> <JCHEM_ACCEPTOR_COUNT>
3

> <JCHEM_DONOR_COUNT>
3

> <JCHEM_ACIDIC_PKA>
15.03

> <JCHEM_BASIC_PKA>
5.6

> <JCHEM_PHYSIOLOGICAL_CHARGE>
0

> <ALOGPS_LOGP>
0.53

> <JCHEM_LOGP>
0.99

> <ALOGPS_LOGS>
-3

> <JCHEM_POLARIZABILITY>
25.88

> <JCHEM_POLAR_SURFACE_AREA>
53.16

> <JCHEM_REFRACTIVITY>
86.98

> <JCHEM_ROTATABLE_BOND_COUNT>
5

> <ALOGPS_SOLUBILITY>
2.28e-01 g/l __ 

$$$$
