1422
  Mrv0541 02231215292D          

 14 15  0  0  0  0            999 V2000
    2.3641    1.7282    0.0000 O   0  0  0  0  0  0  0  0  0  0  0  0
    1.6498   -1.9838    0.0000 O   0  5  0  0  0  0  0  0  0  0  0  0
    3.0786   -1.9838    0.0000 O   0  0  0  0  0  0  0  0  0  0  0  0
    3.8160    0.9319    0.0000 N   0  0  0  0  0  0  0  0  0  0  0  0
    2.3641   -1.5714    0.0000 N   0  3  0  0  0  0  0  0  0  0  0  0
    3.0786   -0.3341    0.0000 C   0  0  0  0  0  0  0  0  0  0  0  0
    3.0786    0.4908    0.0000 C   0  0  0  0  0  0  0  0  0  0  0  0
    2.3641   -0.7465    0.0000 C   0  0  0  0  0  0  0  0  0  0  0  0
    2.3641    0.9033    0.0000 C   0  0  0  0  0  0  0  0  0  0  0  0
    1.6498   -0.3341    0.0000 C   0  0  0  0  0  0  0  0  0  0  0  0
    3.8160   -0.7752    0.0000 C   0  0  0  0  0  0  0  0  0  0  0  0
    1.6498    0.4908    0.0000 C   0  0  0  0  0  0  0  0  0  0  0  0
    4.5634   -0.3513    0.0000 C   0  0  0  0  0  0  0  0  0  0  0  0
    4.5634    0.5079    0.0000 C   0  0  0  0  0  0  0  0  0  0  0  0
  1  9  1  0  0  0  0
  2  5  1  0  0  0  0
  3  5  2  0  0  0  0
  4  7  1  0  0  0  0
  4 14  2  0  0  0  0
  5  8  1  0  0  0  0
  6  7  1  0  0  0  0
  6  8  2  0  0  0  0
  6 11  1  0  0  0  0
  7  9  2  0  0  0  0
  8 10  1  0  0  0  0
  9 12  1  0  0  0  0
 10 12  2  0  0  0  0
 11 13  2  0  0  0  0
 13 14  1  0  0  0  0
M  END
> <DRUGBANK_ID>
DB01422

> <DRUG_GROUPS>
approved

> <GENERIC_NAME>
Nitroxoline

> <SYNONYMS>
Nitroxolina; Nitroxolinum

> <BRANDS>
Nitroxoline

> <CHEMICAL_FORMULA>
C9H6N2O3

> <MOLECULAR_WEIGHT>
190.1555

> <EXACT_MASS>
190.037842068

> <IUPAC_NAME>
5-nitroquinolin-8-ol

> <IUPAC_TRADITIONAL_NAME>
nitroxoline

> <INCHI_IDENTIFIER>
InChI=1S/C9H6N2O3/c12-8-4-3-7(11(13)14)6-2-1-5-10-9(6)8/h1-5,12H

> <INCHI_KEY>
InChIKey=RJIWZDNTCBHXAL-UHFFFAOYSA-N

> <SMILES>
OC1=C2N=CC=CC2=C(C=C1)[N+]([O-])=O

> <JCHEM_ACCEPTOR_COUNT>
4

> <JCHEM_DONOR_COUNT>
1

> <JCHEM_ACIDIC_PKA>
6.88

> <JCHEM_BASIC_PKA>
2.08

> <JCHEM_PHYSIOLOGICAL_CHARGE>
-1

> <ALOGPS_LOGP>
1.9

> <JCHEM_LOGP>
1.77

> <ALOGPS_LOGS>
-1.8

> <JCHEM_POLARIZABILITY>
17.16

> <JCHEM_POLAR_SURFACE_AREA>
78.94

> <JCHEM_REFRACTIVITY>
49.28

> <JCHEM_ROTATABLE_BOND_COUNT>
1

> <ALOGPS_SOLUBILITY>
2.73e+00 g/l __ 

$$$$
