
  Mrv0541 02231215442D          

 25 25  0  0  1  0            999 V2000
    0.0000   -3.3000    0.0000 C   0  0  0  0  0  0  0  0  0  0  0  0
    0.0000   -2.4750    0.0000 C   0  0  0  0  0  0  0  0  0  0  0  0
   -0.7145   -2.0625    0.0000 N   0  3  0  0  0  0  0  0  0  0  0  0
   -0.7145   -1.2375    0.0000 C   0  0  0  0  0  0  0  0  0  0  0  0
    0.0000   -0.8250    0.0000 C   0  0  0  0  0  0  0  0  0  0  0  0
    0.0000    0.0000    0.0000 C   0  0  0  0  0  0  0  0  0  0  0  0
   -0.7145    0.4125    0.0000 O   0  0  0  0  0  0  0  0  0  0  0  0
   -0.7145    1.2375    0.0000 P   0  0  0  0  0  0  0  0  0  0  0  0
   -0.7145    2.0625    0.0000 O   0  0  0  0  0  0  0  0  0  0  0  0
   -1.5395    1.2375    0.0000 O   0  0  0  0  0  0  0  0  0  0  0  0
    0.1105    1.2375    0.0000 O   0  0  0  0  0  0  0  0  0  0  0  0
    0.7145   -1.2375    0.0000 C   0  0  0  0  0  0  0  0  0  0  0  0
    1.4289   -0.8250    0.0000 C   0  0  0  0  0  0  0  0  0  0  0  0
    2.1434   -1.2375    0.0000 N   0  0  0  0  0  0  0  0  0  0  0  0
    2.8579   -0.8250    0.0000 C   0  0  2  0  0  0  0  0  0  0  0  0
    3.5724   -1.2375    0.0000 C   0  0  0  0  0  0  0  0  0  0  0  0
    4.2868   -0.8250    0.0000 C   0  0  0  0  0  0  0  0  0  0  0  0
    5.0013   -1.2375    0.0000 C   0  0  0  0  0  0  0  0  0  0  0  0
    5.7158   -0.8250    0.0000 O   0  0  0  0  0  0  0  0  0  0  0  0
    5.0013   -2.0625    0.0000 O   0  0  0  0  0  0  0  0  0  0  0  0
    2.8579    0.0000    0.0000 C   0  0  0  0  0  0  0  0  0  0  0  0
    3.5724    0.4125    0.0000 O   0  0  0  0  0  0  0  0  0  0  0  0
    2.1434    0.4125    0.0000 O   0  0  0  0  0  0  0  0  0  0  0  0
    0.7145   -2.0625    0.0000 C   0  0  0  0  0  0  0  0  0  0  0  0
    1.4289   -2.4750    0.0000 O   0  0  0  0  0  0  0  0  0  0  0  0
  1  2  1  0  0  0  0
  2  3  2  0  0  0  0
  3  4  1  0  0  0  0
  4  5  2  0  0  0  0
  5  6  1  0  0  0  0
  6  7  1  0  0  0  0
  7  8  1  0  0  0  0
  8  9  1  0  0  0  0
  8 10  1  0  0  0  0
  8 11  2  0  0  0  0
  5 12  1  0  0  0  0
 12 13  1  0  0  0  0
 13 14  1  0  0  0  0
 15 14  1  1  0  0  0
 15 16  1  0  0  0  0
 16 17  1  0  0  0  0
 17 18  1  0  0  0  0
 18 19  1  0  0  0  0
 18 20  2  0  0  0  0
 15 21  1  0  0  0  0
 21 22  1  0  0  0  0
 21 23  2  0  0  0  0
 12 24  2  0  0  0  0
  2 24  1  0  0  0  0
 24 25  1  0  0  0  0
M  END
> <DRUGBANK_ID>
DB01813

> <DRUG_GROUPS>
experimental

> <GENERIC_NAME>
Pyridoxyl-Glutamic Acid-5'-Monophosphate

> <CHEMICAL_FORMULA>
C13H20N2O9P

> <MOLECULAR_WEIGHT>
379.2797

> <EXACT_MASS>
379.09064176

> <IUPAC_NAME>
4-({[(1R)-1,3-dicarboxypropyl]amino}methyl)-3-hydroxy-2-methyl-5-[(phosphonooxy)methyl]pyridin-1-ium

> <IUPAC_TRADITIONAL_NAME>
4-({[(1R)-1,3-dicarboxypropyl]amino}methyl)-3-hydroxy-2-methyl-5-[(phosphonooxy)methyl]pyridin-1-ium

> <INCHI_IDENTIFIER>
InChI=1S/C13H19N2O9P/c1-7-12(18)9(8(4-14-7)6-24-25(21,22)23)5-15-10(13(19)20)2-3-11(16)17/h4,10,15,18H,2-3,5-6H2,1H3,(H,16,17)(H,19,20)(H2,21,22,23)/p+1/t10-/m1/s1

> <INCHI_KEY>
InChIKey=JMRKOGDJNHPMHS-SNVBAGLBSA-O

> <SMILES>
CC1=[NH+]C=C(COP(O)(O)=O)C(CN[C@H](CCC(O)=O)C(O)=O)=C1O

> <JCHEM_ACCEPTOR_COUNT>
9

> <JCHEM_DONOR_COUNT>
7

> <JCHEM_ACIDIC_PKA>
0.98

> <JCHEM_BASIC_PKA>
10.12

> <JCHEM_PHYSIOLOGICAL_CHARGE>
-3

> <ALOGPS_LOGP>
-1.1

> <JCHEM_LOGP>
-4.8

> <ALOGPS_LOGS>
-3.2

> <JCHEM_POLARIZABILITY>
33.97

> <JCHEM_POLAR_SURFACE_AREA>
187.76

> <JCHEM_REFRACTIVITY>
84.29

> <JCHEM_ROTATABLE_BOND_COUNT>
10

> <ALOGPS_SOLUBILITY>
2.57e-01 g/l __ 

$$$$
