1210
  Mrv0541 02231215192D          

 21 22  0  0  1  0            999 V2000
    4.5080    0.1367    0.0000 O   0  0  0  0  0  0  0  0  0  0  0  0
    4.5080   -1.5133    0.0000 O   0  0  0  0  0  0  0  0  0  0  0  0
    5.9504    3.4653    0.0000 O   0  0  0  0  0  0  0  0  0  0  0  0
    3.0791   -2.3383    0.0000 N   0  0  0  0  0  0  0  0  0  0  0  0
    2.3645   -2.7509    0.0000 C   0  0  0  0  0  0  0  0  0  0  0  0
    5.9600    0.9332    0.0000 C   0  0  0  0  0  0  0  0  0  0  0  0
    5.2224    1.3742    0.0000 C   0  0  0  0  0  0  0  0  0  0  0  0
    3.0791   -1.5133    0.0000 C   0  0  0  0  0  0  0  0  0  0  0  0
    6.7075    1.3571    0.0000 C   0  0  0  0  0  0  0  0  0  0  0  0
    3.7935   -1.1008    0.0000 C   0  0  1  0  0  0  0  0  0  0  0  0
    6.7075    2.2164    0.0000 C   0  0  0  0  0  0  0  0  0  0  0  0
    5.2224    2.1993    0.0000 C   0  0  0  0  0  0  0  0  0  0  0  0
    1.9520   -2.0364    0.0000 C   0  0  0  0  0  0  0  0  0  0  0  0
    2.7770   -3.4653    0.0000 C   0  0  0  0  0  0  0  0  0  0  0  0
    1.6500   -3.1634    0.0000 C   0  0  0  0  0  0  0  0  0  0  0  0
    4.5080    0.9617    0.0000 C   0  0  0  0  0  0  0  0  0  0  0  0
    3.7935   -0.2758    0.0000 C   0  0  0  0  0  0  0  0  0  0  0  0
    5.9600    2.6404    0.0000 C   0  0  0  0  0  0  0  0  0  0  0  0
    4.5080    2.6118    0.0000 C   0  0  0  0  0  0  0  0  0  0  0  0
    3.7935    1.3742    0.0000 C   0  0  0  0  0  0  0  0  0  0  0  0
    3.7935    2.1993    0.0000 C   0  0  0  0  0  0  0  0  0  0  0  0
  1 16  1  0  0  0  0
  1 17  1  0  0  0  0
 10  2  1  1  0  0  0
  3 18  2  0  0  0  0
  4  5  1  0  0  0  0
  4  8  1  0  0  0  0
  5 13  1  0  0  0  0
  5 14  1  0  0  0  0
  5 15  1  0  0  0  0
  6  7  1  0  0  0  0
  6  9  1  0  0  0  0
  7 12  2  0  0  0  0
  7 16  1  0  0  0  0
  8 10  1  0  0  0  0
  9 11  1  0  0  0  0
 10 17  1  0  0  0  0
 11 18  1  0  0  0  0
 12 18  1  0  0  0  0
 12 19  1  0  0  0  0
 16 20  2  0  0  0  0
 19 21  2  0  0  0  0
 20 21  1  0  0  0  0
M  END
> <DRUGBANK_ID>
DB01210

> <DRUG_GROUPS>
approved

> <GENERIC_NAME>
Levobunolol

> <SYNONYMS>
Levobunololum

> <SALTS>
Levobunolol Hydrochloride

> <BRANDS>


> <CHEMICAL_FORMULA>
C17H25NO3

> <MOLECULAR_WEIGHT>
291.3853

> <EXACT_MASS>
291.183443671

> <IUPAC_NAME>
5-[(2S)-3-(tert-butylamino)-2-hydroxypropoxy]-1,2,3,4-tetrahydronaphthalen-1-one

> <IUPAC_TRADITIONAL_NAME>
levobunolol

> <INCHI_IDENTIFIER>
InChI=1S/C17H25NO3/c1-17(2,3)18-10-12(19)11-21-16-9-5-6-13-14(16)7-4-8-15(13)20/h5-6,9,12,18-19H,4,7-8,10-11H2,1-3H3/t12-/m0/s1

> <INCHI_KEY>
InChIKey=IXHBTMCLRNMKHZ-LBPRGKRZSA-N

> <SMILES>
CC(C)(C)NC[C@H](O)COC1=CC=CC2=C1CCCC2=O

> <JCHEM_ACCEPTOR_COUNT>
4

> <JCHEM_DONOR_COUNT>
2

> <JCHEM_ACIDIC_PKA>
14.09

> <JCHEM_BASIC_PKA>
9.66

> <JCHEM_PHYSIOLOGICAL_CHARGE>
1

> <ALOGPS_LOGP>
2.06

> <JCHEM_LOGP>
2.18

> <ALOGPS_LOGS>
-3.1

> <JCHEM_POLARIZABILITY>
33.38

> <JCHEM_POLAR_SURFACE_AREA>
58.56

> <JCHEM_REFRACTIVITY>
83.28

> <JCHEM_ROTATABLE_BOND_COUNT>
6

> <ALOGPS_SOLUBILITY>
2.51e-01 g/l __ 

$$$$
