 
  Mrv0541 04191212172D          

 54 56  0  0  0  0            999 V2000
    6.6042  -11.5667    0.0000 C   0  0  2  0  0  0  0  0  0  0  0  0
    4.6667  -11.7500    0.0000 C   0  0  2  0  0  0  0  0  0  0  0  0
    3.2292  -11.7542    0.0000 C   0  0  0  0  0  0  0  0  0  0  0  0
    2.5042   -9.6917    0.0000 C   0  0  1  0  0  0  0  0  0  0  0  0
    3.9542  -12.1625    0.0000 C   0  0  2  0  0  0  0  0  0  0  0  0
    7.3167  -11.1417    0.0000 C   0  0  1  0  0  0  0  0  0  0  0  0
    5.3750  -10.5167    0.0000 C   0  0  1  0  0  0  0  0  0  0  0  0
    4.6625  -10.9250    0.0000 C   0  0  1  0  0  0  0  0  0  0  0  0
    3.2292   -8.4542    0.0000 C   0  0  2  0  0  0  0  0  0  0  0  0
    3.2292  -10.9292    0.0000 O   0  0  0  0  0  0  0  0  0  0  0  0
    3.2292   -9.2792    0.0000 C   0  0  1  0  0  0  0  0  0  0  0  0
    3.9417   -8.0417    0.0000 C   0  0  0  0  0  0  0  0  0  0  0  0
    6.0875  -10.9292    0.0000 O   0  0  0  0  0  0  0  0  0  0  0  0
    4.5000  -14.8375    0.0000 C   0  0  2  0  0  0  0  0  0  0  0  0
    8.0417  -11.5500    0.0000 C   0  0  2  0  0  0  0  0  0  0  0  0
    5.3750   -9.6917    0.0000 C   0  0  1  0  0  0  0  0  0  0  0  0
    4.5125  -13.3042    0.0000 C   0  0  1  0  0  0  0  0  0  0  0  0
    4.9292  -14.1292    0.0000 C   0  0  0  0  0  0  0  0  0  0  0  0
    6.6167  -12.3917    0.0000 O   0  0  0  0  0  0  0  0  0  0  0  0
    3.7042  -13.3792    0.0000 O   0  0  0  0  0  0  0  0  0  0  0  0
    2.5167  -10.5167    0.0000 C   0  0  2  0  0  0  0  0  0  0  0  0
    3.6750  -14.8125    0.0000 C   0  0  2  0  0  0  0  0  0  0  0  0
    5.0917  -12.5750    0.0000 O   0  0  0  0  0  0  0  0  0  0  0  0
    3.2750  -14.0792    0.0000 C   0  0  2  0  0  0  0  0  0  0  0  0
    4.6625   -8.4542    0.0000 C   0  0  1  0  0  0  0  0  0  0  0  0
    4.6625   -9.2792    0.0000 C   0  0  0  0  0  0  0  0  0  0  0  0
    8.0542  -12.3792    0.0000 C   0  0  0  0  0  0  0  0  0  0  0  0
    8.7542  -11.1292    0.0000 N   0  0  0  0  0  0  0  0  0  0  0  0
    2.5167  -12.1667    0.0000 O   0  0  0  0  0  0  0  0  0  0  0  0
    7.3417  -12.7917    0.0000 C   0  0  1  0  0  0  0  0  0  0  0  0
    3.9417   -7.2167    0.0000 O   0  0  0  0  0  0  0  0  0  0  0  0
    2.0042   -9.0417    0.0000 O   0  0  0  0  0  0  0  0  0  0  0  0
    7.3125  -10.3167    0.0000 O   0  0  0  0  0  0  0  0  0  0  0  0
    3.9417   -9.6917    0.0000 O   0  0  0  0  0  0  0  0  0  0  0  0
    4.0542  -15.5375    0.0000 O   0  0  0  0  0  0  0  0  0  0  0  0
    5.3667   -8.8625    0.0000 O   0  0  0  0  0  0  0  0  0  0  0  0
    3.2292  -15.5042    0.0000 O   0  0  0  0  0  0  0  0  0  0  0  0
    1.8417   -9.9375    0.0000 C   0  0  0  0  0  0  0  0  0  0  0  0
    3.8875  -12.8500    0.0000 C   0  0  0  0  0  0  0  0  0  0  0  0
    3.9417  -10.5125    0.0000 C   0  0  0  0  0  0  0  0  0  0  0  0
    2.5167   -8.0417    0.0000 C   0  0  0  0  0  0  0  0  0  0  0  0
    5.3167  -14.8625    0.0000 C   0  0  0  0  0  0  0  0  0  0  0  0
    6.0875  -10.1042    0.0000 C   0  0  0  0  0  0  0  0  0  0  0  0
    1.8042  -10.9292    0.0000 C   0  0  0  0  0  0  0  0  0  0  0  0
    2.4417  -14.0667    0.0000 C   0  0  0  0  0  0  0  0  0  0  0  0
    5.3750   -8.0417    0.0000 C   0  0  0  0  0  0  0  0  0  0  0  0
    8.7417  -10.3042    0.0000 C   0  0  0  0  0  0  0  0  0  0  0  0
    9.4750  -11.5375    0.0000 C   0  0  0  0  0  0  0  0  0  0  0  0
    7.3542  -13.5500    0.0000 C   0  0  0  0  0  0  0  0  0  0  0  0
    4.4500  -16.2667    0.0000 C   0  0  0  0  0  0  0  0  0  0  0  0
    6.0792   -8.4417    0.0000 C   0  0  0  0  0  0  0  0  0  0  0  0
    1.0875  -10.5167    0.0000 C   0  0  0  0  0  0  0  0  0  0  0  0
    5.4292  -13.3417    0.0000 H   0  0  0  0  0  0  0  0  0  0  0  0
    5.8917  -11.9667    0.0000 H   0  0  0  0  0  0  0  0  0  0  0  0
  2  8  1  0  0  0  0
  3  5  1  0  0  0  0
  4 11  1  0  0  0  0
  5  2  1  0  0  0  0
  6  1  1  0  0  0  0
  7 13  1  6  0  0  0
  8  7  1  0  0  0  0
  9 12  1  0  0  0  0
 10  3  1  0  0  0  0
 11  9  1  0  0  0  0
 12 25  1  0  0  0  0
 13  1  1  0  0  0  0
 14 18  1  0  0  0  0
 15  6  1  0  0  0  0
 16  7  1  0  0  0  0
 17 23  1  0  0  0  0
 18 17  1  0  0  0  0
 19  1  1  0  0  0  0
 20 17  1  0  0  0  0
 21 10  1  0  0  0  0
 22 24  1  0  0  0  0
  2 23  1  6  0  0  0
 24 20  1  0  0  0  0
 25 26  1  0  0  0  0
 26 16  1  0  0  0  0
 27 30  1  0  0  0  0
 15 28  1  1  0  0  0
 29  3  2  0  0  0  0
 30 19  1  0  0  0  0
 31 12  2  0  0  0  0
  4 32  1  1  0  0  0
  6 33  1  6  0  0  0
 11 34  1  1  0  0  0
 14 35  1  1  0  0  0
 16 36  1  1  0  0  0
 22 37  1  1  0  0  0
 38  4  1  0  0  0  0
  5 39  1  1  0  0  0
  8 40  1  6  0  0  0
  9 41  1  1  0  0  0
 42 14  1  0  0  0  0
 43 16  1  0  0  0  0
 21 44  1  6  0  0  0
 24 45  1  6  0  0  0
 25 46  1  6  0  0  0
 47 28  1  0  0  0  0
 48 28  1  0  0  0  0
 30 49  1  1  0  0  0
 50 35  1  0  0  0  0
 51 36  1  0  0  0  0
 52 44  1  0  0  0  0
 17 53  1  6  0  0  0
  1 54  1  6  0  0  0
 15 27  1  0  0  0  0
 21  4  1  0  0  0  0
 14 22  1  0  0  0  0
M  END
> <DRUGBANK_ID>
DB01211

> <DRUG_GROUPS>
approved

> <GENERIC_NAME>
Clarithromycin

> <SYNONYMS>
6-O-methyl erythromycin; Clarithromycine

> <BRANDS>
Biaxin; Biaxin XL; Klacid XL; Klaricid XL; Macladin; Naxy; Veclam; Zeclar

> <CHEMICAL_FORMULA>
C38H69NO13

> <MOLECULAR_WEIGHT>
747.9534

> <EXACT_MASS>
747.476891299

> <IUPAC_NAME>
(3R,4S,5S,6R,7R,9R,11R,12R,13S,14R)-6-{[(2S,3R,4S,6R)-4-(dimethylamino)-3-hydroxy-6-methyloxan-2-yl]oxy}-14-ethyl-12,13-dihydroxy-4-{[(2R,4R,5S,6S)-5-hydroxy-4-methoxy-4,6-dimethyloxan-2-yl]oxy}-7-methoxy-3,5,7,9,11,13-hexamethyl-1-oxacyclotetradecane-2,10-dione

> <IUPAC_TRADITIONAL_NAME>
clarithromycin

> <INCHI_IDENTIFIER>
InChI=1S/C38H69NO13/c1-15-26-38(10,45)31(42)21(4)28(40)19(2)17-37(9,47-14)33(52-35-29(41)25(39(11)12)16-20(3)48-35)22(5)30(23(6)34(44)50-26)51-27-18-36(8,46-13)32(43)24(7)49-27/h19-27,29-33,35,41-43,45H,15-18H2,1-14H3/t19-,20-,21+,22+,23-,24+,25+,26-,27+,29-,30+,31-,32+,33-,35+,36-,37-,38-/m1/s1

> <INCHI_KEY>
InChIKey=AGOYDEPGAOXOCK-KCBOHYOISA-N

> <SMILES>
[H][C@@]1(C[C@@](C)(OC)[C@@H](O)[C@H](C)O1)O[C@H]1[C@H](C)[C@@H](O[C@]2([H])O[C@H](C)C[C@@H]([C@H]2O)N(C)C)[C@@](C)(C[C@@H](C)C(=O)[C@H](C)[C@@H](O)[C@](C)(O)[C@@H](CC)OC(=O)[C@@H]1C)OC

> <JCHEM_ACCEPTOR_COUNT>
13

> <JCHEM_DONOR_COUNT>
4

> <JCHEM_ACIDIC_PKA>
12.46

> <JCHEM_BASIC_PKA>
8.38

> <JCHEM_PHYSIOLOGICAL_CHARGE>
1

> <ALOGPS_LOGP>
3.18

> <JCHEM_LOGP>
3.24

> <ALOGPS_LOGS>
-3.5

> <JCHEM_POLARIZABILITY>
82.03

> <JCHEM_POLAR_SURFACE_AREA>
182.91

> <JCHEM_REFRACTIVITY>
190.79

> <JCHEM_ROTATABLE_BOND_COUNT>
8

> <ALOGPS_SOLUBILITY>
2.17e-01 g/l __ 

$$$$
