
  Mrv0541 02231215402D          

 56 60  0  0  1  0            999 V2000
    5.7158   -7.4250    0.0000 O   0  0  0  0  0  0  0  0  0  0  0  0
    6.4302   -7.8375    0.0000 C   0  0  0  0  0  0  0  0  0  0  0  0
    6.4302   -8.6625    0.0000 C   0  0  2  0  0  0  0  0  0  0  0  0
    7.1447   -9.0750    0.0000 O   0  0  0  0  0  0  0  0  0  0  0  0
    7.1447   -9.9000    0.0000 C   0  0  2  0  0  0  0  0  0  0  0  0
    7.8592  -10.3125    0.0000 S   0  0  0  0  0  0  0  0  0  0  0  0
    8.5737   -9.9000    0.0000 C   0  0  2  0  0  0  0  0  0  0  0  0
    9.2881  -10.3125    0.0000 C   0  0  2  0  0  0  0  0  0  0  0  0
    9.2881  -11.1375    0.0000 C   0  0  0  0  0  0  0  0  0  0  0  0
   10.0026  -11.5500    0.0000 O   0  0  0  0  0  0  0  0  0  0  0  0
   10.0026   -9.9000    0.0000 O   0  0  0  0  0  0  0  0  0  0  0  0
   10.0026   -9.0750    0.0000 C   0  0  1  0  0  0  0  0  0  0  0  0
   10.7171   -8.6625    0.0000 O   0  0  0  0  0  0  0  0  0  0  0  0
   11.4315   -9.0750    0.0000 C   0  0  2  0  0  0  0  0  0  0  0  0
   12.1460   -8.6625    0.0000 C   0  0  2  0  0  0  0  0  0  0  0  0
   12.1460   -7.8375    0.0000 C   0  0  0  0  0  0  0  0  0  0  0  0
   11.4315   -7.4250    0.0000 O   0  0  0  0  0  0  0  0  0  0  0  0
   12.8605   -9.0750    0.0000 O   0  0  0  0  0  0  0  0  0  0  0  0
   12.8605   -9.9000    0.0000 C   0  0  1  0  0  0  0  0  0  0  0  0
   13.5749  -10.3125    0.0000 S   0  0  0  0  0  0  0  0  0  0  0  0
   14.2894   -9.9000    0.0000 C   0  0  2  0  0  0  0  0  0  0  0  0
   15.0039  -10.3125    0.0000 C   0  0  2  0  0  0  0  0  0  0  0  0
   15.0039  -11.1375    0.0000 C   0  0  0  0  0  0  0  0  0  0  0  0
   15.7184  -11.5500    0.0000 O   0  0  0  0  0  0  0  0  0  0  0  0
   15.7184   -9.9000    0.0000 O   0  0  0  0  0  0  0  0  0  0  0  0
   15.7184   -9.0750    0.0000 C   0  0  1  0  0  0  0  0  0  0  0  0
   16.4328   -8.6625    0.0000 O   0  0  0  0  0  0  0  0  0  0  0  0
   17.1473   -9.0750    0.0000 C   0  0  2  0  0  0  0  0  0  0  0  0
   17.8618   -8.6625    0.0000 C   0  0  2  0  0  0  0  0  0  0  0  0
   17.8618   -7.8375    0.0000 C   0  0  0  0  0  0  0  0  0  0  0  0
   18.5762   -7.4250    0.0000 O   0  0  0  0  0  0  0  0  0  0  0  0
   18.5762   -9.0750    0.0000 O   0  0  0  0  0  0  0  0  0  0  0  0
   18.5762   -9.9000    0.0000 C   0  0  1  0  0  0  0  0  0  0  0  0
   19.2907  -10.3125    0.0000 S   0  0  0  0  0  0  0  0  0  0  0  0
   17.8618  -10.3125    0.0000 C   0  0  2  0  0  0  0  0  0  0  0  0
   17.8618  -11.1375    0.0000 O   0  0  0  0  0  0  0  0  0  0  0  0
   17.1473   -9.9000    0.0000 C   0  0  1  0  0  0  0  0  0  0  0  0
   16.4328  -10.3125    0.0000 O   0  0  0  0  0  0  0  0  0  0  0  0
   15.0039   -8.6625    0.0000 C   0  0  2  0  0  0  0  0  0  0  0  0
   15.0039   -7.8375    0.0000 O   0  0  0  0  0  0  0  0  0  0  0  0
   14.2894   -9.0750    0.0000 C   0  0  1  0  0  0  0  0  0  0  0  0
   13.5749   -8.6625    0.0000 O   0  0  0  0  0  0  0  0  0  0  0  0
   12.1460  -10.3125    0.0000 C   0  0  2  0  0  0  0  0  0  0  0  0
   12.1460  -11.1375    0.0000 O   0  0  0  0  0  0  0  0  0  0  0  0
   11.4315   -9.9000    0.0000 C   0  0  1  0  0  0  0  0  0  0  0  0
   10.7171  -10.3125    0.0000 O   0  0  0  0  0  0  0  0  0  0  0  0
    9.2881   -8.6625    0.0000 C   0  0  2  0  0  0  0  0  0  0  0  0
    9.2881   -7.8375    0.0000 O   0  0  0  0  0  0  0  0  0  0  0  0
    8.5737   -9.0750    0.0000 C   0  0  1  0  0  0  0  0  0  0  0  0
    7.8592   -8.6625    0.0000 O   0  0  0  0  0  0  0  0  0  0  0  0
    6.4302  -10.3125    0.0000 C   0  0  1  0  0  0  0  0  0  0  0  0
    6.4302  -11.1375    0.0000 O   0  0  0  0  0  0  0  0  0  0  0  0
    5.7158   -9.9000    0.0000 C   0  0  2  0  0  0  0  0  0  0  0  0
    5.0013  -10.3125    0.0000 O   0  0  0  0  0  0  0  0  0  0  0  0
    5.7158   -9.0750    0.0000 C   0  0  1  0  0  0  0  0  0  0  0  0
    5.0013   -8.6625    0.0000 O   0  0  0  0  0  0  0  0  0  0  0  0
  1  2  1  0  0  0  0
  3  2  1  6  0  0  0
  3  4  1  0  0  0  0
  4  5  1  0  0  0  0
  5  6  1  6  0  0  0
  7  6  1  1  0  0  0
  7  8  1  0  0  0  0
  8  9  1  1  0  0  0
  9 10  1  0  0  0  0
  8 11  1  0  0  0  0
 11 12  1  0  0  0  0
 12 13  1  6  0  0  0
 14 13  1  6  0  0  0
 14 15  1  0  0  0  0
 15 16  1  6  0  0  0
 16 17  1  0  0  0  0
 15 18  1  0  0  0  0
 18 19  1  0  0  0  0
 19 20  1  1  0  0  0
 21 20  1  1  0  0  0
 21 22  1  0  0  0  0
 22 23  1  1  0  0  0
 23 24  1  0  0  0  0
 22 25  1  0  0  0  0
 25 26  1  0  0  0  0
 26 27  1  6  0  0  0
 28 27  1  6  0  0  0
 28 29  1  0  0  0  0
 29 30  1  6  0  0  0
 30 31  1  0  0  0  0
 29 32  1  0  0  0  0
 32 33  1  0  0  0  0
 33 34  1  1  0  0  0
 33 35  1  0  0  0  0
 35 36  1  6  0  0  0
 35 37  1  0  0  0  0
 28 37  1  0  0  0  0
 37 38  1  1  0  0  0
 26 39  1  0  0  0  0
 39 40  1  1  0  0  0
 39 41  1  0  0  0  0
 21 41  1  0  0  0  0
 41 42  1  6  0  0  0
 19 43  1  0  0  0  0
 43 44  1  6  0  0  0
 43 45  1  0  0  0  0
 14 45  1  0  0  0  0
 45 46  1  1  0  0  0
 12 47  1  0  0  0  0
 47 48  1  1  0  0  0
 47 49  1  0  0  0  0
  7 49  1  0  0  0  0
 49 50  1  6  0  0  0
  5 51  1  0  0  0  0
 51 52  1  1  0  0  0
 51 53  1  0  0  0  0
 53 54  1  6  0  0  0
 53 55  1  0  0  0  0
  3 55  1  0  0  0  0
 55 56  1  1  0  0  0
M  END
> <DRUGBANK_ID>
DB01719

> <DRUG_GROUPS>
experimental

> <GENERIC_NAME>
Thio-Maltopentaose

> <CHEMICAL_FORMULA>
C30H52O23S3

> <MOLECULAR_WEIGHT>
876.915

> <EXACT_MASS>
876.20615004

> <IUPAC_NAME>
(2R,3S,4R,5R,6S)-2-{[(2S,3S,4R,5R,6R)-6-{[(2S,3S,4R,5R,6S)-6-{[(2S,3S,4R,5R,6R)-6-{[(2S,3S,4R,5R,6S)-4,5-dihydroxy-2-(hydroxymethyl)-6-sulfanyloxan-3-yl]oxy}-4,5-dihydroxy-2-(hydroxymethyl)oxan-3-yl]sulfanyl}-4,5-dihydroxy-2-(hydroxymethyl)oxan-3-yl]oxy}-4,5-dihydroxy-2-(hydroxymethyl)oxan-3-yl]sulfanyl}-6-(hydroxymethyl)oxane-3,4,5-triol

> <IUPAC_TRADITIONAL_NAME>
thio-maltopentaose

> <INCHI_IDENTIFIER>
InChI=1S/C30H52O23S3/c31-1-6-11(36)12(37)20(45)29(50-6)55-24-9(4-34)48-27(18(43)15(24)40)53-23-8(3-33)51-30(21(46)14(23)39)56-25-10(5-35)47-26(17(42)16(25)41)52-22-7(2-32)49-28(54)19(44)13(22)38/h6-46,54H,1-5H2/t6-,7-,8-,9-,10-,11-,12+,13+,14+,15+,16+,17+,18+,19+,20-,21+,22+,23+,24+,25+,26-,27-,28-,29+,30-/m0/s1

> <INCHI_KEY>
InChIKey=HQMKYAZGNUQLJB-MPVXZSPKSA-N

> <SMILES>
OC[C@@H]1O[C@H](S[C@H]2[C@H](O)[C@@H](O)[C@H](O[C@H]3[C@H](O)[C@@H](O)[C@@H](O[C@H]3CO)S[C@H]3[C@H](O)[C@@H](O)[C@H](O[C@H]4[C@H](O)[C@@H](O)[C@H](S)O[C@H]4CO)O[C@H]3CO)O[C@H]2CO)[C@@H](O)[C@H](O)[C@H]1O

> <JCHEM_ACCEPTOR_COUNT>
23

> <JCHEM_DONOR_COUNT>
17

> <JCHEM_ACIDIC_PKA>
8.64

> <JCHEM_BASIC_PKA>
-3.7

> <JCHEM_PHYSIOLOGICAL_CHARGE>
0

> <ALOGPS_LOGP>
-2.5

> <JCHEM_LOGP>
-8.4

> <ALOGPS_LOGS>
-0.96

> <JCHEM_POLARIZABILITY>
84.18

> <JCHEM_POLAR_SURFACE_AREA>
388.29

> <JCHEM_REFRACTIVITY>
184.5

> <JCHEM_ROTATABLE_BOND_COUNT>
13

> <ALOGPS_SOLUBILITY>
9.59e+01 g/l __ 

$$$$
