
  Mrv0541 02231215362D          

 40 42  0  0  1  0            999 V2000
   -5.1711    6.9237    0.0000 C   0  0  0  0  0  0  0  0  0  0  0  0
   -4.7586    6.2092    0.0000 C   0  0  0  0  0  0  0  0  0  0  0  0
   -3.9336    6.2092    0.0000 C   0  0  0  0  0  0  0  0  0  0  0  0
   -3.5211    5.4947    0.0000 C   0  0  0  0  0  0  0  0  0  0  0  0
   -2.6961    5.4947    0.0000 C   0  0  0  0  0  0  0  0  0  0  0  0
   -2.2836    4.7802    0.0000 C   0  0  0  0  0  0  0  0  0  0  0  0
   -1.4586    4.7802    0.0000 C   0  0  0  0  0  0  0  0  0  0  0  0
   -1.0461    4.0658    0.0000 C   0  0  0  0  0  0  0  0  0  0  0  0
   -1.4586    3.3513    0.0000 C   0  0  0  0  0  0  0  0  0  0  0  0
   -2.2836    3.3513    0.0000 C   0  0  0  0  0  0  0  0  0  0  0  0
   -2.6961    4.0658    0.0000 C   0  0  0  0  0  0  0  0  0  0  0  0
   -1.0461    2.6368    0.0000 C   0  0  0  0  0  0  0  0  0  0  0  0
   -1.4586    1.9224    0.0000 O   0  0  0  0  0  0  0  0  0  0  0  0
   -0.2211    2.6368    0.0000 N   0  0  0  0  0  0  0  0  0  0  0  0
    0.1914    1.9224    0.0000 C   0  0  0  0  0  0  0  0  0  0  0  0
    1.0164    1.9224    0.0000 C   0  0  0  0  0  0  0  0  0  0  0  0
    1.4289    1.2079    0.0000 C   0  0  0  0  0  0  0  0  0  0  0  0
    1.0164    0.4934    0.0000 C   0  0  0  0  0  0  0  0  0  0  0  0
    0.1914    0.4934    0.0000 C   0  0  0  0  0  0  0  0  0  0  0  0
   -0.2211    1.2079    0.0000 C   0  0  0  0  0  0  0  0  0  0  0  0
    1.4289   -0.2211    0.0000 S   0  0  0  0  0  0  0  0  0  0  0  0
    0.7145   -0.6336    0.0000 O   0  0  0  0  0  0  0  0  0  0  0  0
    2.1434    0.1914    0.0000 O   0  0  0  0  0  0  0  0  0  0  0  0
    1.8414   -0.9355    0.0000 N   0  0  0  0  0  0  0  0  0  0  0  0
    1.4289   -1.6500    0.0000 C   0  0  0  0  0  0  0  0  0  0  0  0
    1.8414   -2.3645    0.0000 C   0  0  0  0  0  0  0  0  0  0  0  0
    1.4289   -3.0789    0.0000 N   0  0  0  0  0  0  0  0  0  0  0  0
    1.8414   -3.7934    0.0000 C   0  0  0  0  0  0  0  0  0  0  0  0
    1.4289   -4.5079    0.0000 C   0  0  0  0  0  0  0  0  0  0  0  0
    0.6039   -4.5079    0.0000 O   0  0  0  0  0  0  0  0  0  0  0  0
    0.1914   -3.7934    0.0000 C   0  0  0  0  0  0  0  0  0  0  0  0
    0.6039   -3.0789    0.0000 C   0  0  0  0  0  0  0  0  0  0  0  0
    2.6664   -0.9355    0.0000 C   0  0  2  0  0  0  0  0  0  0  0  0
    3.0789   -0.2211    0.0000 C   0  0  0  0  0  0  0  0  0  0  0  0
    3.9039   -0.2211    0.0000 C   0  0  0  0  0  0  0  0  0  0  0  0
    2.6664    0.4934    0.0000 C   0  0  0  0  0  0  0  0  0  0  0  0
    3.0789   -1.6500    0.0000 C   0  0  0  0  0  0  0  0  0  0  0  0
    2.6664   -2.3645    0.0000 O   0  0  0  0  0  0  0  0  0  0  0  0
    3.9039   -1.6500    0.0000 N   0  0  0  0  0  0  0  0  0  0  0  0
    4.3164   -2.3645    0.0000 O   0  0  0  0  0  0  0  0  0  0  0  0
  1  2  1  0  0  0  0
  2  3  1  0  0  0  0
  3  4  1  0  0  0  0
  4  5  1  0  0  0  0
  5  6  1  0  0  0  0
  6  7  2  0  0  0  0
  7  8  1  0  0  0  0
  8  9  2  0  0  0  0
  9 10  1  0  0  0  0
 10 11  2  0  0  0  0
  6 11  1  0  0  0  0
  9 12  1  0  0  0  0
 12 13  2  0  0  0  0
 12 14  1  0  0  0  0
 14 15  1  0  0  0  0
 15 16  2  0  0  0  0
 16 17  1  0  0  0  0
 17 18  2  0  0  0  0
 18 19  1  0  0  0  0
 19 20  2  0  0  0  0
 15 20  1  0  0  0  0
 18 21  1  0  0  0  0
 21 22  2  0  0  0  0
 21 23  2  0  0  0  0
 21 24  1  0  0  0  0
 24 25  1  0  0  0  0
 25 26  1  0  0  0  0
 26 27  1  0  0  0  0
 27 28  1  0  0  0  0
 28 29  1  0  0  0  0
 29 30  1  0  0  0  0
 30 31  1  0  0  0  0
 31 32  1  0  0  0  0
 27 32  1  0  0  0  0
 33 24  1  6  0  0  0
 33 34  1  0  0  0  0
 34 35  1  0  0  0  0
 34 36  1  0  0  0  0
 33 37  1  0  0  0  0
 37 38  2  0  0  0  0
 37 39  1  0  0  0  0
 39 40  1  0  0  0  0
M  END
> <DRUGBANK_ID>
DB01630

> <DRUG_GROUPS>
experimental

> <GENERIC_NAME>
SC-74020

> <CHEMICAL_FORMULA>
C29H42N4O6S

> <MOLECULAR_WEIGHT>
574.732

> <EXACT_MASS>
574.282505786

> <IUPAC_NAME>
N-(4-{[(1R)-1-(hydroxycarbamoyl)-2-methylpropyl][2-(morpholin-4-yl)ethyl]sulfamoyl}phenyl)-4-pentylbenzamide

> <IUPAC_TRADITIONAL_NAME>
N-(4-{[(1R)-1-(hydroxycarbamoyl)-2-methylpropyl][2-(morpholin-4-yl)ethyl]sulfamoyl}phenyl)-4-pentylbenzamide

> <INCHI_IDENTIFIER>
InChI=1S/C29H42N4O6S/c1-4-5-6-7-23-8-10-24(11-9-23)28(34)30-25-12-14-26(15-13-25)40(37,38)33(27(22(2)3)29(35)31-36)17-16-32-18-20-39-21-19-32/h8-15,22,27,36H,4-7,16-21H2,1-3H3,(H,30,34)(H,31,35)/t27-/m1/s1

> <INCHI_KEY>
InChIKey=YJNCFXPJICILOK-HHHXNRCGSA-N

> <SMILES>
CCCCCC1=CC=C(C=C1)C(=O)NC1=CC=C(C=C1)S(=O)(=O)N(CCN1CCOCC1)[C@H](C(C)C)C(=O)NO

> <JCHEM_ACCEPTOR_COUNT>
7

> <JCHEM_DONOR_COUNT>
3

> <JCHEM_ACIDIC_PKA>
8.71

> <JCHEM_BASIC_PKA>
5.11

> <JCHEM_PHYSIOLOGICAL_CHARGE>
0

> <ALOGPS_LOGP>
3.78

> <JCHEM_LOGP>
4.33

> <ALOGPS_LOGS>
-4.8

> <JCHEM_POLARIZABILITY>
63.92

> <JCHEM_POLAR_SURFACE_AREA>
128.28

> <JCHEM_REFRACTIVITY>
157.24

> <JCHEM_ROTATABLE_BOND_COUNT>
13

> <ALOGPS_SOLUBILITY>
1.01e-02 g/l __ 

$$$$
