
  Mrv0541 02231215402D          

 11 12  0  0  0  0            999 V2000
    3.2789    2.0625    0.0000 Cl   0  0  0  0  0  0  0  0  0  0  0  0
    3.2789    1.2375    0.0000 C    0  0  0  0  0  0  0  0  0  0  0  0
    3.9934    0.8250    0.0000 N    0  0  0  0  0  0  0  0  0  0  0  0
    3.9934    0.0000    0.0000 C    0  0  0  0  0  0  0  0  0  0  0  0
    4.7079   -0.4125    0.0000 Br   0  0  0  0  0  0  0  0  0  0  0  0
    3.2789   -0.4125    0.0000 N    0  0  0  0  0  0  0  0  0  0  0  0
    2.5645    0.0000    0.0000 C    0  0  0  0  0  0  0  0  0  0  0  0
    1.7798   -0.2549    0.0000 N    0  0  0  0  0  0  0  0  0  0  0  0
    1.2949    0.4125    0.0000 C    0  0  0  0  0  0  0  0  0  0  0  0
    1.7798    1.0799    0.0000 N    0  0  0  0  0  0  0  0  0  0  0  0
    2.5645    0.8250    0.0000 C    0  0  0  0  0  0  0  0  0  0  0  0
  1  2  1  0  0  0  0
  2  3  4  0  0  0  0
  3  4  4  0  0  0  0
  4  5  1  0  0  0  0
  4  6  4  0  0  0  0
  6  7  4  0  0  0  0
  7  8  4  0  0  0  0
  8  9  4  0  0  0  0
  9 10  4  0  0  0  0
 10 11  4  0  0  0  0
  2 11  4  0  0  0  0
  7 11  4  0  0  0  0
M  END
> <DRUGBANK_ID>
DB01706

> <DRUG_GROUPS>
experimental

> <GENERIC_NAME>
2-Bromo-6-Chloro-Purine

> <CHEMICAL_FORMULA>
C5HBrClN4

> <MOLECULAR_WEIGHT>
232.445

> <EXACT_MASS>
230.907311406

> <IUPAC_NAME>
2-bromo-6-chloropurine

> <IUPAC_TRADITIONAL_NAME>
2-bromo-6-chloro-purine

> <INCHI_IDENTIFIER>
InChI=1S/C5HBrClN4/c6-5-10-3(7)2-4(11-5)9-1-8-2/h1H

> <INCHI_KEY>
InChIKey=CSKWDIUHOGZPIE-UHFFFAOYSA-N

> <SMILES>
Clc1nc(Br)nc2ncnc12

> <JCHEM_ACCEPTOR_COUNT>
4

> <JCHEM_DONOR_COUNT>
0

> <JCHEM_BASIC_PKA>
-2.8

> <JCHEM_PHYSIOLOGICAL_CHARGE>
0

> <ALOGPS_LOGP>
1.58

> <JCHEM_LOGP>
1.77

> <ALOGPS_LOGS>
-2.2

> <JCHEM_POLARIZABILITY>
16.38

> <JCHEM_POLAR_SURFACE_AREA>
51.56

> <JCHEM_REFRACTIVITY>
46.29

> <JCHEM_ROTATABLE_BOND_COUNT>
0

> <ALOGPS_SOLUBILITY>
1.60e+00 g/l __ 

$$$$
