
  Mrv0541 02231215492D          

  6  5  0  0  0  0            999 V2000
    1.2375    2.1434    0.0000 C    0  0  0  0  0  0  0  0  0  0  0  0
    0.8250    1.4289    0.0000 Te   0  0  0  0  0  0  0  0  0  0  0  0
    1.2375    0.7145    0.0000 C    0  0  0  0  0  0  0  0  0  0  0  0
    0.8250    0.0000    0.0000 C    0  0  0  0  0  0  0  0  0  0  0  0
    1.2375   -0.7145    0.0000 O    0  5  0  0  0  0  0  0  0  0  0  0
    0.0000    0.0000    0.0000 O    0  0  0  0  0  0  0  0  0  0  0  0
  1  2  1  0  0  0  0
  2  3  1  0  0  0  0
  3  4  1  0  0  0  0
  4  5  1  0  0  0  0
  4  6  2  0  0  0  0
M  END
> <DRUGBANK_ID>
DB01918

> <DRUG_GROUPS>
experimental

> <GENERIC_NAME>
[Methyltelluro]Acetate

> <CHEMICAL_FORMULA>
C3H5O2Te

> <MOLECULAR_WEIGHT>
200.7

> <EXACT_MASS>
202.935177157

> <IUPAC_NAME>
2-(methyltellanyl)acetate

> <IUPAC_TRADITIONAL_NAME>
2-(methyltellanyl)acetate

> <INCHI_IDENTIFIER>
InChI=1S/C3H6O2Te/c1-6-2-3(4)5/h2H2,1H3,(H,4,5)/p-1

> <INCHI_KEY>
InChIKey=OKJWQADPGUWQAJ-UHFFFAOYSA-M

> <SMILES>
C[Te]CC([O-])=O

> <JCHEM_ACCEPTOR_COUNT>
2

> <JCHEM_DONOR_COUNT>
0

> <JCHEM_ACIDIC_PKA>
3.8

> <JCHEM_PHYSIOLOGICAL_CHARGE>
-1

> <ALOGPS_LOGP>
-0.3

> <JCHEM_LOGP>
-0.29

> <ALOGPS_LOGS>
-0.28

> <JCHEM_POLARIZABILITY>
9.16

> <JCHEM_POLAR_SURFACE_AREA>
40.13

> <JCHEM_REFRACTIVITY>
28.17

> <JCHEM_ROTATABLE_BOND_COUNT>
2

> <ALOGPS_SOLUBILITY>
1.16e+02 g/l __ 

$$$$
