
  Mrv0541 02231215522D          

 25 24  0  0  1  0            999 V2000
    7.9480    5.4138    0.0000 C   0  0  0  0  0  0  0  0  0  0  0  0
    8.6625    5.0013    0.0000 C   0  0  0  0  0  0  0  0  0  0  0  0
    9.3770    5.4138    0.0000 C   0  0  0  0  0  0  0  0  0  0  0  0
   10.0914    5.0013    0.0000 C   0  0  0  0  0  0  0  0  0  0  0  0
   10.8059    5.4138    0.0000 C   0  0  0  0  0  0  0  0  0  0  0  0
   11.5204    5.0013    0.0000 C   0  0  0  0  0  0  0  0  0  0  0  0
   12.2349    5.4138    0.0000 C   0  0  0  0  0  0  0  0  0  0  0  0
   12.9493    5.0013    0.0000 C   0  0  0  0  0  0  0  0  0  0  0  0
   13.6638    5.4138    0.0000 C   0  0  0  0  0  0  0  0  0  0  0  0
   13.6638    6.2388    0.0000 O   0  0  0  0  0  0  0  0  0  0  0  0
   14.3783    5.0013    0.0000 N   0  0  0  0  0  0  0  0  0  0  0  0
   14.3783    4.1763    0.0000 C   0  0  0  0  0  0  0  0  0  0  0  0
   15.0927    3.7638    0.0000 C   0  0  0  0  0  0  0  0  0  0  0  0
   15.0927    2.9388    0.0000 O   0  0  0  0  0  0  0  0  0  0  0  0
   15.0927    5.4138    0.0000 C   0  0  0  0  0  0  0  0  0  0  0  0
   15.8072    5.0013    0.0000 C   0  0  1  0  0  0  0  0  0  0  0  0
   15.8072    4.1763    0.0000 O   0  0  0  0  0  0  0  0  0  0  0  0
   16.5217    5.4138    0.0000 C   0  0  2  0  0  0  0  0  0  0  0  0
   16.5217    6.2388    0.0000 O   0  0  0  0  0  0  0  0  0  0  0  0
   17.2362    5.0013    0.0000 C   0  0  1  0  0  0  0  0  0  0  0  0
   17.2362    4.1763    0.0000 O   0  0  0  0  0  0  0  0  0  0  0  0
   17.9506    5.4138    0.0000 C   0  0  2  0  0  0  0  0  0  0  0  0
   17.9506    6.2388    0.0000 O   0  0  0  0  0  0  0  0  0  0  0  0
   18.6651    5.0013    0.0000 C   0  0  0  0  0  0  0  0  0  0  0  0
   19.3796    5.4138    0.0000 O   0  0  0  0  0  0  0  0  0  0  0  0
  1  2  1  0  0  0  0
  2  3  1  0  0  0  0
  3  4  1  0  0  0  0
  4  5  1  0  0  0  0
  5  6  1  0  0  0  0
  6  7  1  0  0  0  0
  7  8  1  0  0  0  0
  8  9  1  0  0  0  0
  9 10  2  0  0  0  0
  9 11  1  0  0  0  0
 11 12  1  0  0  0  0
 12 13  1  0  0  0  0
 13 14  1  0  0  0  0
 11 15  1  0  0  0  0
 15 16  1  0  0  0  0
 16 17  1  6  0  0  0
 16 18  1  0  0  0  0
 18 19  1  6  0  0  0
 18 20  1  0  0  0  0
 20 21  1  6  0  0  0
 20 22  1  0  0  0  0
 22 23  1  6  0  0  0
 22 24  1  0  0  0  0
 24 25  1  0  0  0  0
M  END
> <DRUGBANK_ID>
DB01970

> <DRUG_GROUPS>
experimental

> <GENERIC_NAME>
Hg9a-9, Nonanoyl-N-Hydroxyethylglucamide

> <CHEMICAL_FORMULA>
C17H35NO7

> <MOLECULAR_WEIGHT>
365.4623

> <EXACT_MASS>
365.241352479

> <IUPAC_NAME>
N-(2-hydroxyethyl)-N-[(2R,3S,4S,5R)-2,3,4,5,6-pentahydroxyhexyl]nonanamide

> <IUPAC_TRADITIONAL_NAME>
N-(2-hydroxyethyl)-N-[(2R,3S,4S,5R)-2,3,4,5,6-pentahydroxyhexyl]nonanamide

> <INCHI_IDENTIFIER>
InChI=1S/C17H35NO7/c1-2-3-4-5-6-7-8-15(23)18(9-10-19)11-13(21)16(24)17(25)14(22)12-20/h13-14,16-17,19-22,24-25H,2-12H2,1H3/t13-,14-,16+,17+/m1/s1

> <INCHI_KEY>
InChIKey=REPLXGVUTGZQCG-JHNDHUHGSA-N

> <SMILES>
CCCCCCCCC(=O)N(CCO)C[C@@H](O)[C@H](O)[C@@H](O)[C@H](O)CO

> <JCHEM_ACCEPTOR_COUNT>
7

> <JCHEM_DONOR_COUNT>
6

> <JCHEM_ACIDIC_PKA>
12.65

> <JCHEM_BASIC_PKA>
0.22

> <JCHEM_PHYSIOLOGICAL_CHARGE>
0

> <ALOGPS_LOGP>
0.31

> <JCHEM_LOGP>
-1.1

> <ALOGPS_LOGS>
-1.6

> <JCHEM_POLARIZABILITY>
40.77

> <JCHEM_POLAR_SURFACE_AREA>
141.69

> <JCHEM_REFRACTIVITY>
92.93

> <JCHEM_ROTATABLE_BOND_COUNT>
15

> <ALOGPS_SOLUBILITY>
9.98e+00 g/l __ 

$$$$
