1067
  Mrv0541 02231215132D          

 31 33  0  0  0  0            999 V2000
    3.7935    2.2688    0.0000 S   0  0  0  0  0  0  0  0  0  0  0  0
    5.2224    3.0938    0.0000 O   0  0  0  0  0  0  0  0  0  0  0  0
    2.9685    2.2688    0.0000 O   0  0  0  0  0  0  0  0  0  0  0  0
    4.6185    2.2688    0.0000 O   0  0  0  0  0  0  0  0  0  0  0  0
    1.6500   -2.2688    0.0000 O   0  0  0  0  0  0  0  0  0  0  0  0
    4.5080    4.3313    0.0000 N   0  0  0  0  0  0  0  0  0  0  0  0
    3.7935    3.0938    0.0000 N   0  0  0  0  0  0  0  0  0  0  0  0
    3.0791   -2.2688    0.0000 N   0  0  0  0  0  0  0  0  0  0  0  0
    3.0791   -3.9188    0.0000 N   0  0  0  0  0  0  0  0  0  0  0  0
    1.6500   -4.7439    0.0000 N   0  0  0  0  0  0  0  0  0  0  0  0
    5.2224    4.7439    0.0000 C   0  0  0  0  0  0  0  0  0  0  0  0
    5.9370    4.3313    0.0000 C   0  0  0  0  0  0  0  0  0  0  0  0
    5.2224    5.5689    0.0000 C   0  0  0  0  0  0  0  0  0  0  0  0
    6.6515    4.7439    0.0000 C   0  0  0  0  0  0  0  0  0  0  0  0
    5.9370    5.9814    0.0000 C   0  0  0  0  0  0  0  0  0  0  0  0
    6.6515    5.5689    0.0000 C   0  0  0  0  0  0  0  0  0  0  0  0
    4.5080    3.5063    0.0000 C   0  0  0  0  0  0  0  0  0  0  0  0
    3.7935    1.4438    0.0000 C   0  0  0  0  0  0  0  0  0  0  0  0
    3.7935   -0.2063    0.0000 C   0  0  0  0  0  0  0  0  0  0  0  0
    3.0791    1.0313    0.0000 C   0  0  0  0  0  0  0  0  0  0  0  0
    4.5080    1.0313    0.0000 C   0  0  0  0  0  0  0  0  0  0  0  0
    3.7935   -1.0313    0.0000 C   0  0  0  0  0  0  0  0  0  0  0  0
    3.0791    0.2063    0.0000 C   0  0  0  0  0  0  0  0  0  0  0  0
    4.5080    0.2063    0.0000 C   0  0  0  0  0  0  0  0  0  0  0  0
    3.0791   -1.4438    0.0000 C   0  0  0  0  0  0  0  0  0  0  0  0
    2.3645   -2.6813    0.0000 C   0  0  0  0  0  0  0  0  0  0  0  0
    2.3645   -3.5063    0.0000 C   0  0  0  0  0  0  0  0  0  0  0  0
    1.6500   -3.9188    0.0000 C   0  0  0  0  0  0  0  0  0  0  0  0
    2.3645   -5.1564    0.0000 C   0  0  0  0  0  0  0  0  0  0  0  0
    3.0791   -4.7439    0.0000 C   0  0  0  0  0  0  0  0  0  0  0  0
    2.3645   -5.9814    0.0000 C   0  0  0  0  0  0  0  0  0  0  0  0
  1  3  2  0  0  0  0
  1  4  2  0  0  0  0
  1  7  1  0  0  0  0
  1 18  1  0  0  0  0
  2 17  2  0  0  0  0
  5 26  2  0  0  0  0
  6 11  1  0  0  0  0
  6 17  1  0  0  0  0
  7 17  1  0  0  0  0
  8 25  1  0  0  0  0
  8 26  1  0  0  0  0
  9 27  2  0  0  0  0
  9 30  1  0  0  0  0
 10 28  2  0  0  0  0
 10 29  1  0  0  0  0
 11 12  1  0  0  0  0
 11 13  1  0  0  0  0
 12 14  1  0  0  0  0
 13 15  1  0  0  0  0
 14 16  1  0  0  0  0
 15 16  1  0  0  0  0
 18 20  2  0  0  0  0
 18 21  1  0  0  0  0
 19 22  1  0  0  0  0
 19 23  2  0  0  0  0
 19 24  1  0  0  0  0
 20 23  1  0  0  0  0
 21 24  2  0  0  0  0
 22 25  1  0  0  0  0
 26 27  1  0  0  0  0
 27 28  1  0  0  0  0
 29 30  2  0  0  0  0
 29 31  1  0  0  0  0
M  END
> <DRUGBANK_ID>
DB01067

> <DRUG_GROUPS>
approved

> <GENERIC_NAME>
Glipizide

> <SYNONYMS>
Glipizida; Glipizidum

> <BRANDS>
Glucotrol; Glucotrol XL

> <CHEMICAL_FORMULA>
C21H27N5O4S

> <MOLECULAR_WEIGHT>
445.535

> <EXACT_MASS>
445.178375067

> <IUPAC_NAME>
N-[2-(4-{[(cyclohexylcarbamoyl)amino]sulfonyl}phenyl)ethyl]-5-methylpyrazine-2-carboxamide

> <IUPAC_TRADITIONAL_NAME>
N-(2-{4-[(cyclohexylcarbamoyl)aminosulfonyl]phenyl}ethyl)-5-methylpyrazine-2-carboxamide

> <INCHI_IDENTIFIER>
InChI=1S/C21H27N5O4S/c1-15-13-24-19(14-23-15)20(27)22-12-11-16-7-9-18(10-8-16)31(29,30)26-21(28)25-17-5-3-2-4-6-17/h7-10,13-14,17H,2-6,11-12H2,1H3,(H,22,27)(H2,25,26,28)

> <INCHI_KEY>
InChIKey=ZJJXGWJIGJFDTL-UHFFFAOYSA-N

> <SMILES>
CC1=CN=C(C=N1)C(=O)NCCC1=CC=C(C=C1)S(=O)(=O)NC(=O)NC1CCCCC1

> <JCHEM_ACCEPTOR_COUNT>
6

> <JCHEM_DONOR_COUNT>
3

> <JCHEM_ACIDIC_PKA>
4.32

> <JCHEM_BASIC_PKA>
0.059

> <JCHEM_PHYSIOLOGICAL_CHARGE>
-1

> <ALOGPS_LOGP>
1.83

> <JCHEM_LOGP>
1.43

> <ALOGPS_LOGS>
-4.4

> <JCHEM_POLARIZABILITY>
47.64

> <JCHEM_POLAR_SURFACE_AREA>
130.15

> <JCHEM_REFRACTIVITY>
115.62

> <JCHEM_ROTATABLE_BOND_COUNT>
6

> <ALOGPS_SOLUBILITY>
1.64e-02 g/l __ 

$$$$
