1001
  Mrv0541 02231215102D          

 17 17  0  0  1  0            999 V2000
    3.5220    1.0082    0.0000 O   0  0  0  0  0  0  0  0  0  0  0  0
    4.2365   -2.7044    0.0000 O   0  0  0  0  0  0  0  0  0  0  0  0
    2.0930   -1.4669    0.0000 O   0  0  0  0  0  0  0  0  0  0  0  0
    4.9509    1.8332    0.0000 N   0  0  0  0  0  0  0  0  0  0  0  0
    5.6655    2.2457    0.0000 C   0  0  0  0  0  0  0  0  0  0  0  0
    4.9509    1.0082    0.0000 C   0  0  0  0  0  0  0  0  0  0  0  0
    4.2365    0.5957    0.0000 C   0  0  0  0  0  0  0  0  0  0  0  0
    6.3799    2.6582    0.0000 C   0  0  0  0  0  0  0  0  0  0  0  0
    5.2530    2.9602    0.0000 C   0  0  0  0  0  0  0  0  0  0  0  0
    6.0780    1.5312    0.0000 C   0  0  0  0  0  0  0  0  0  0  0  0
    4.2365   -0.2294    0.0000 C   0  0  0  0  0  0  0  0  0  0  0  0
    3.5220   -0.6419    0.0000 C   0  0  0  0  0  0  0  0  0  0  0  0
    4.9509   -0.6419    0.0000 C   0  0  0  0  0  0  0  0  0  0  0  0
    3.5220   -1.4669    0.0000 C   0  0  0  0  0  0  0  0  0  0  0  0
    4.2365   -1.8794    0.0000 C   0  0  0  0  0  0  0  0  0  0  0  0
    4.9509   -1.4669    0.0000 C   0  0  0  0  0  0  0  0  0  0  0  0
    2.8075   -1.8794    0.0000 C   0  0  0  0  0  0  0  0  0  0  0  0
  1  7  1  0  0  0  0
  2 15  1  0  0  0  0
  3 17  1  0  0  0  0
  4  5  1  0  0  0  0
  4  6  1  0  0  0  0
  5  8  1  0  0  0  0
  5  9  1  0  0  0  0
  5 10  1  0  0  0  0
  6  7  1  0  0  0  0
  7 11  1  0  0  0  0
 11 12  2  0  0  0  0
 11 13  1  0  0  0  0
 12 14  1  0  0  0  0
 13 16  2  0  0  0  0
 14 15  2  0  0  0  0
 14 17  1  0  0  0  0
 15 16  1  0  0  0  0
M  END
> <DRUGBANK_ID>
DB01001

> <DRUG_GROUPS>
approved

> <GENERIC_NAME>
Salbutamol

> <SYNONYMS>
Albuterol

> <SALTS>
Salbutamol Sulfate

> <BRANDS>
Aerolin; Airomir; Asmol; Asthalin; Asthavent; ProAir; Proventil; Salamol; Ventilan; Ventolin; Ventoline; Ventorlin

> <CHEMICAL_FORMULA>
C13H21NO3

> <MOLECULAR_WEIGHT>
239.3107

> <EXACT_MASS>
239.152143543

> <IUPAC_NAME>
4-[2-(tert-butylamino)-1-hydroxyethyl]-2-(hydroxymethyl)phenol

> <IUPAC_TRADITIONAL_NAME>
albuterol

> <INCHI_IDENTIFIER>
InChI=1S/C13H21NO3/c1-13(2,3)14-7-12(17)9-4-5-11(16)10(6-9)8-15/h4-6,12,14-17H,7-8H2,1-3H3

> <INCHI_KEY>
InChIKey=NDAUXUAQIAJITI-UHFFFAOYSA-N

> <SMILES>
CC(C)(C)NCC(O)C1=CC(CO)=C(O)C=C1

> <JCHEM_ACCEPTOR_COUNT>
4

> <JCHEM_DONOR_COUNT>
4

> <JCHEM_ACIDIC_PKA>
10.12

> <JCHEM_BASIC_PKA>
9.4

> <JCHEM_PHYSIOLOGICAL_CHARGE>
1

> <ALOGPS_LOGP>
0.44

> <JCHEM_LOGP>
0.34

> <ALOGPS_LOGS>
-2

> <JCHEM_POLARIZABILITY>
26.86

> <JCHEM_POLAR_SURFACE_AREA>
72.72

> <JCHEM_REFRACTIVITY>
67.87

> <JCHEM_ROTATABLE_BOND_COUNT>
5

> <ALOGPS_SOLUBILITY>
2.15e+00 g/l __ 

$$$$
