ATE
  Mrv0541 02231215482D          

 25 28  0  0  0  0            999 V2000
    3.2286    0.4743    0.0000 O   0  0  0  0  0  0  0  0  0  0  0  0
    2.4165    0.3291    0.0000 C   0  0  2  0  0  0  0  0  0  0  0  0
    2.1362   -0.4468    0.0000 C   0  0  0  0  0  0  0  0  0  0  0  0
    1.3241   -0.5920    0.0000 C   0  0  0  0  0  0  0  0  0  0  0  0
    1.8847    0.9598    0.0000 C   0  0  0  0  0  0  0  0  0  0  0  0
    1.0725    0.8146    0.0000 C   0  0  2  0  0  0  0  0  0  0  0  0
    0.5407    1.4453    0.0000 C   0  0  0  0  0  0  0  0  0  0  0  0
    0.7922    0.0387    0.0000 C   0  0  2  0  0  0  0  0  0  0  0  0
    0.5119   -0.7372    0.0000 C   0  0  0  0  0  0  0  0  0  0  0  0
   -0.0199   -0.1065    0.0000 C   0  0  1  0  0  0  0  0  0  0  0  0
   -0.3002   -0.8824    0.0000 C   0  0  0  0  0  0  0  0  0  0  0  0
   -0.5517    0.5242    0.0000 C   0  0  1  0  0  0  0  0  0  0  0  0
   -0.2714    1.3001    0.0000 C   0  0  0  0  0  0  0  0  0  0  0  0
   -1.3638    0.3790    0.0000 C   0  0  2  0  0  0  0  0  0  0  0  0
   -2.0151    0.8853    0.0000 C   0  0  0  0  0  0  0  0  0  0  0  0
   -1.6441   -0.3969    0.0000 C   0  0  1  0  0  0  0  0  0  0  0  0
   -1.1123   -1.0277    0.0000 C   0  0  0  0  0  0  0  0  0  0  0  0
   -2.0040   -1.1393    0.0000 C   0  0  0  0  0  0  0  0  0  0  0  0
   -2.4687   -0.3701    0.0000 C   0  0  0  0  0  0  0  0  0  0  0  0
   -2.6980    0.4223    0.0000 C   0  0  0  0  0  0  0  0  0  0  0  0
    2.7929   -0.1173    0.0000 H   0  0  0  0  0  0  0  0  0  0  0  0
    1.2709    1.3638    0.0000 H   0  0  0  0  0  0  0  0  0  0  0  0
    0.3565   -0.5529    0.0000 H   0  0  0  0  0  0  0  0  0  0  0  0
   -0.9281    0.9706    0.0000 H   0  0  0  0  0  0  0  0  0  0  0  0
   -1.2239    0.9459    0.0000 H   0  0  0  0  0  0  0  0  0  0  0  0
  2  1  1  6  0  0  0
  2  3  1  0  0  0  0
  2  5  1  0  0  0  0
  2 21  1  1  0  0  0
  3  4  1  0  0  0  0
  4  8  1  0  0  0  0
  5  6  1  0  0  0  0
  6  7  1  0  0  0  0
  6  8  1  0  0  0  0
  6 22  1  6  0  0  0
  7 13  1  0  0  0  0
  8  9  1  1  0  0  0
  8 10  1  0  0  0  0
 10 11  1  0  0  0  0
 10 12  1  0  0  0  0
 10 23  1  6  0  0  0
 11 17  1  0  0  0  0
 12 13  1  0  0  0  0
 12 14  1  0  0  0  0
 12 24  1  1  0  0  0
 14 15  1  0  0  0  0
 14 16  1  0  0  0  0
 14 25  1  6  0  0  0
 15 20  1  0  0  0  0
 16 17  1  0  0  0  0
 16 18  1  1  0  0  0
 16 19  1  0  0  0  0
 19 20  2  0  0  0  0
M  END
> <DRUGBANK_ID>
DB01889

> <DRUG_GROUPS>
experimental

> <GENERIC_NAME>
16,17-Androstene-3-Ol

> <CHEMICAL_FORMULA>
C19H30O

> <MOLECULAR_WEIGHT>
274.4409

> <EXACT_MASS>
274.229665582

> <IUPAC_NAME>
(1S,2S,5R,7S,10R,11S,15R)-2,15-dimethyltetracyclo[8.7.0.0^{2,7}.0^{11,15}]heptadec-13-en-5-ol

> <IUPAC_TRADITIONAL_NAME>
androstenol

> <INCHI_IDENTIFIER>
InChI=1S/C19H30O/c1-18-9-3-4-16(18)15-6-5-13-12-14(20)7-11-19(13,2)17(15)8-10-18/h3,9,13-17,20H,4-8,10-12H2,1-2H3/t13-,14+,15-,16-,17-,18-,19-/m0/s1

> <INCHI_KEY>
InChIKey=KRVXMNNRSSQZJP-PHFHYRSDSA-N

> <SMILES>
[H][C@@]12CC=C[C@@]1(C)CC[C@@]1([H])[C@@]2([H])CC[C@@]2([H])C[C@]([H])(O)CC[C@]12C

> <JCHEM_ACCEPTOR_COUNT>
1

> <JCHEM_DONOR_COUNT>
1

> <JCHEM_ACIDIC_PKA>
18.3

> <JCHEM_BASIC_PKA>
-1.4

> <JCHEM_PHYSIOLOGICAL_CHARGE>
0

> <ALOGPS_LOGP>
5.13

> <JCHEM_LOGP>
4.07

> <ALOGPS_LOGS>
-5.9

> <JCHEM_POLARIZABILITY>
33.67

> <JCHEM_POLAR_SURFACE_AREA>
20.23

> <JCHEM_REFRACTIVITY>
84.23

> <JCHEM_ROTATABLE_BOND_COUNT>
0

> <ALOGPS_SOLUBILITY>
3.55e-04 g/l __ 

$$$$
