 
  Mrv0541 02231215112D          
 
 15 15  0  0  0  0            999 V2000
   14.9998   -9.5113    0.0000 C    0  0  0  0  0  0  0  0  0  0  0  0
   14.2821   -9.0959    0.0000 C    0  0  0  0  0  0  0  0  0  0  0  0
   14.9929  -10.3321    0.0000 C    0  0  0  0  0  0  0  0  0  0  0  0
   15.7106   -9.0925    0.0000 C    0  0  0  0  0  0  0  0  0  0  0  0
   13.5713   -9.5113    0.0000 C    0  0  0  0  0  0  0  0  0  0  0  0
   15.7106  -10.7442    0.0000 C    0  0  0  0  0  0  0  0  0  0  0  0
   14.2787  -10.7407    0.0000 Cl   0  0  0  0  0  0  0  0  0  0  0  0
   16.4248   -9.5045    0.0000 C    0  0  0  0  0  0  0  0  0  0  0  0
   15.7071   -8.2649    0.0000 Cl   0  0  0  0  0  0  0  0  0  0  0  0
   12.8571   -9.0959    0.0000 N    0  0  0  0  0  0  0  0  0  0  0  0
   13.5713  -10.3355    0.0000 O    0  0  0  0  0  0  0  0  0  0  0  0
   16.4248  -10.3321    0.0000 C    0  0  0  0  0  0  0  0  0  0  0  0
   12.1393   -9.5113    0.0000 C    0  0  0  0  0  0  0  0  0  0  0  0
   11.4251   -9.0959    0.0000 N    0  0  0  0  0  0  0  0  0  0  0  0
   12.1393  -10.3355    0.0000 N    0  0  0  0  0  0  0  0  0  0  0  0
  1  2  1  0  0  0  0
  1  3  2  0  0  0  0
  1  4  1  0  0  0  0
  2  5  1  0  0  0  0
  3  6  1  0  0  0  0
  3  7  1  0  0  0  0
  4  8  2  0  0  0  0
  4  9  1  0  0  0  0
  5 10  1  0  0  0  0
  5 11  2  0  0  0  0
  6 12  2  0  0  0  0
 10 13  1  0  0  0  0
 13 14  1  0  0  0  0
 13 15  2  0  0  0  0
  8 12  1  0  0  0  0
M  END
> <DRUGBANK_ID>
DB01018

> <DRUG_GROUPS>
approved; investigational

> <GENERIC_NAME>
Guanfacine

> <SYNONYMS>
Guanfacina; Guanfacinum

> <SALTS>
Guanfacine Hydrochloride

> <BRANDS>
Estulic; Intuniv; Tenex

> <CHEMICAL_FORMULA>
C9H9Cl2N3O

> <MOLECULAR_WEIGHT>
246.093

> <EXACT_MASS>
245.012267339

> <IUPAC_NAME>
N-carbamimidoyl-2-(2,6-dichlorophenyl)acetamide

> <IUPAC_TRADITIONAL_NAME>
guanfacine

> <INCHI_IDENTIFIER>
InChI=1S/C9H9Cl2N3O/c10-6-2-1-3-7(11)5(6)4-8(15)14-9(12)13/h1-3H,4H2,(H4,12,13,14,15)

> <INCHI_KEY>
InChIKey=INJOMKTZOLKMBF-UHFFFAOYSA-N

> <SMILES>
NC(=N)NC(=O)CC1=C(Cl)C=CC=C1Cl

> <JCHEM_ACCEPTOR_COUNT>
3

> <JCHEM_DONOR_COUNT>
3

> <JCHEM_ACIDIC_PKA>
12.94

> <JCHEM_BASIC_PKA>
6.65

> <JCHEM_PHYSIOLOGICAL_CHARGE>
0

> <ALOGPS_LOGP>
2.28

> <JCHEM_LOGP>
1.74

> <ALOGPS_LOGS>
-3.2

> <JCHEM_POLARIZABILITY>
21.75

> <JCHEM_POLAR_SURFACE_AREA>
78.97

> <JCHEM_REFRACTIVITY>
69.63

> <JCHEM_ROTATABLE_BOND_COUNT>
2

> <ALOGPS_SOLUBILITY>
1.39e-01 g/l __ 

$$$$
