
  Mrv0541 02231215532D          

 13 14  0  0  0  0            999 V2000
    3.9934    2.4750    0.0000 O    0  5  0  0  0  0  0  0  0  0  0  0
    3.2789    2.0625    0.0000 N    0  3  0  0  0  0  0  0  0  0  0  0
    2.5645    2.4750    0.0000 O    0  0  0  0  0  0  0  0  0  0  0  0
    3.2789    1.2375    0.0000 C    0  0  0  0  0  0  0  0  0  0  0  0
    3.9934    0.8250    0.0000 C    0  0  0  0  0  0  0  0  0  0  0  0
    3.9934    0.0000    0.0000 C    0  0  0  0  0  0  0  0  0  0  0  0
    3.2789   -0.4125    0.0000 C    0  0  0  0  0  0  0  0  0  0  0  0
    2.5645    0.0000    0.0000 C    0  0  0  0  0  0  0  0  0  0  0  0
    1.7798   -0.2549    0.0000 C    0  0  0  0  0  0  0  0  0  0  0  0
    1.5249   -1.0396    0.0000 Br   0  0  0  0  0  0  0  0  0  0  0  0
    1.2949    0.4125    0.0000 N    0  0  0  0  0  0  0  0  0  0  0  0
    1.7798    1.0799    0.0000 N    0  0  0  0  0  0  0  0  0  0  0  0
    2.5645    0.8250    0.0000 C    0  0  0  0  0  0  0  0  0  0  0  0
  1  2  1  0  0  0  0
  2  3  2  0  0  0  0
  2  4  1  0  0  0  0
  4  5  4  0  0  0  0
  5  6  4  0  0  0  0
  6  7  4  0  0  0  0
  7  8  4  0  0  0  0
  8  9  4  0  0  0  0
  9 10  1  0  0  0  0
  9 11  4  0  0  0  0
 11 12  4  0  0  0  0
 12 13  4  0  0  0  0
  4 13  4  0  0  0  0
  8 13  4  0  0  0  0
M  END
> <DRUGBANK_ID>
DB01997

> <DRUG_GROUPS>
experimental

> <GENERIC_NAME>
3-Bromo-7-Nitroindazole

> <CHEMICAL_FORMULA>
C7H3BrN3O2

> <MOLECULAR_WEIGHT>
241.022

> <EXACT_MASS>
239.940864002

> <IUPAC_NAME>
3-bromo-7-nitroindazole

> <IUPAC_TRADITIONAL_NAME>
3-bromo-7-nitroindazole

> <INCHI_IDENTIFIER>
InChI=1S/C7H3BrN3O2/c8-7-4-2-1-3-5(11(12)13)6(4)9-10-7/h1-3H

> <INCHI_KEY>
InChIKey=CCYVFYFSJBZPAW-UHFFFAOYSA-N

> <SMILES>
[O-][N+](=O)c1cccc2c(Br)nnc12

> <JCHEM_ACCEPTOR_COUNT>
4

> <JCHEM_DONOR_COUNT>
0

> <JCHEM_BASIC_PKA>
-1.1

> <JCHEM_PHYSIOLOGICAL_CHARGE>
0

> <ALOGPS_LOGP>
2.39

> <JCHEM_LOGP>
1.74

> <ALOGPS_LOGS>
-2.5

> <JCHEM_POLARIZABILITY>
17.55

> <JCHEM_POLAR_SURFACE_AREA>
71.6

> <JCHEM_REFRACTIVITY>
51.29

> <JCHEM_ROTATABLE_BOND_COUNT>
1

> <ALOGPS_SOLUBILITY>
7.57e-01 g/l __ 

$$$$
