 
  Mrv0541 02231215182D          
 
 33 35  0  0  1  0            999 V2000
   19.5553   -8.8675    0.0000 O   0  0  0  0  0  0  0  0  0  0  0  0
   20.2263   -8.4521    0.0000 C   0  0  1  0  0  0  0  0  0  0  0  0
   20.9806   -8.8588    0.0000 O   0  0  0  0  0  0  0  0  0  0  0  0
   21.6927   -8.4433    0.0000 C   0  0  1  0  0  0  0  0  0  0  0  0
   21.6870   -7.6183    0.0000 C   0  0  2  0  0  0  0  0  0  0  0  0
   20.9691   -7.2087    0.0000 C   0  0  1  0  0  0  0  0  0  0  0  0
   20.2570   -7.6282    0.0000 C   0  0  1  0  0  0  0  0  0  0  0  0
   22.4106   -8.8489    0.0000 C   0  0  0  0  0  0  0  0  0  0  0  0
   22.4163   -9.6739    0.0000 N   0  0  0  0  0  0  0  0  0  0  0  0
   19.5378   -7.2206    0.0000 O   0  0  0  0  0  0  0  0  0  0  0  0
   19.5666   -9.6924    0.0000 C   0  0  2  0  0  0  0  0  0  0  0  0
   20.2871  -10.0976    0.0000 C   0  0  2  0  0  0  0  0  0  0  0  0
   20.2971  -10.9240    0.0000 C   0  0  0  0  0  0  0  0  0  0  0  0
   19.5888  -11.3417    0.0000 C   0  0  2  0  0  0  0  0  0  0  0  0
   18.8271  -10.9408    0.0000 C   0  0  1  0  0  0  0  0  0  0  0  0
   18.8562  -10.1180    0.0000 C   0  0  1  0  0  0  0  0  0  0  0  0
   20.9969   -9.6739    0.0000 N   0  0  0  0  0  0  0  0  0  0  0  0
   19.5990  -12.1668    0.0000 N   0  0  0  0  0  0  0  0  0  0  0  0
   18.1394   -9.7138    0.0000 O   0  0  0  0  0  0  0  0  0  0  0  0
   18.1632  -11.3612    0.0000 O   0  0  0  0  0  0  0  0  0  0  0  0
   17.4512  -11.7800    0.0000 C   0  0  2  0  0  0  0  0  0  0  0  0
   17.4564  -12.6047    0.0000 C   0  0  1  0  0  0  0  0  0  0  0  0
   16.7444  -13.0193    0.0000 C   0  0  2  0  0  0  0  0  0  0  0  0
   16.0271  -12.6137    0.0000 C   0  0  1  0  0  0  0  0  0  0  0  0
   16.0219  -11.7891    0.0000 C   0  0  2  0  0  0  0  0  0  0  0  0
   16.7340  -11.3702    0.0000 O   0  0  0  0  0  0  0  0  0  0  0  0
   18.1741  -13.0105    0.0000 O   0  0  0  0  0  0  0  0  0  0  0  0
   15.3147  -13.0286    0.0000 O   0  0  0  0  0  0  0  0  0  0  0  0
   15.3043  -11.3791    0.0000 C   0  0  0  0  0  0  0  0  0  0  0  0
   16.7496  -13.8444    0.0000 N   0  0  0  0  0  0  0  0  0  0  0  0
   14.5918  -11.7982    0.0000 O   0  0  0  0  0  0  0  0  0  0  0  0
   20.9634   -6.3836    0.0000 O   0  0  0  0  0  0  0  0  0  0  0  0
   22.3993   -7.1988    0.0000 O   0  0  0  0  0  0  0  0  0  0  0  0
 16 19  1  1  0  0  0
  8  9  1  0  0  0  0
 15 20  1  6  0  0  0
 11  1  1  6  0  0  0
 21 20  1  6  0  0  0
  7 10  1  6  0  0  0
  2  3  1  0  0  0  0
  3  4  1  0  0  0  0
  4  5  1  0  0  0  0
  5  6  1  0  0  0  0
 21 22  1  0  0  0  0
 22 23  1  0  0  0  0
 23 24  1  0  0  0  0
 24 25  1  0  0  0  0
 25 26  1  0  0  0  0
 26 21  1  0  0  0  0
  6  7  1  0  0  0  0
 22 27  1  6  0  0  0
  7  2  1  0  0  0  0
 24 28  1  6  0  0  0
 11 12  1  0  0  0  0
 25 29  1  1  0  0  0
 12 13  1  0  0  0  0
 23 30  1  1  0  0  0
 13 14  1  0  0  0  0
 29 31  1  0  0  0  0
 14 15  1  0  0  0  0
  6 32  1  1  0  0  0
 15 16  1  0  0  0  0
  5 33  1  6  0  0  0
 16 11  1  0  0  0  0
  2  1  1  6  0  0  0
 12 17  1  1  0  0  0
  4  8  1  1  0  0  0
 14 18  1  1  0  0  0
M  END
> <DRUGBANK_ID>
DB01172

> <DRUG_GROUPS>
approved

> <GENERIC_NAME>
Kanamycin

> <SYNONYMS>


> <SALTS>
Kanamycin Sulfate

> <BRANDS>


> <CHEMICAL_FORMULA>
C18H36N4O11

> <MOLECULAR_WEIGHT>
484.4986

> <EXACT_MASS>
484.238058014

> <IUPAC_NAME>
(2R,3S,4S,5R,6R)-2-(aminomethyl)-6-{[(1R,2R,3S,4R,6S)-4,6-diamino-3-{[(2S,3R,4S,5S,6R)-4-amino-3,5-dihydroxy-6-(hydroxymethyl)oxan-2-yl]oxy}-2-hydroxycyclohexyl]oxy}oxane-3,4,5-triol

> <IUPAC_TRADITIONAL_NAME>
kanamycin

> <INCHI_IDENTIFIER>
InChI=1S/C18H36N4O11/c19-2-6-10(25)12(27)13(28)18(30-6)33-16-5(21)1-4(20)15(14(16)29)32-17-11(26)8(22)9(24)7(3-23)31-17/h4-18,23-29H,1-3,19-22H2/t4-,5+,6-,7-,8+,9-,10-,11-,12+,13-,14-,15+,16-,17-,18-/m1/s1

> <INCHI_KEY>
InChIKey=SBUJHOSQTJFQJX-NOAMYHISSA-N

> <SMILES>
NC[C@H]1O[C@H](O[C@@H]2[C@@H](N)C[C@@H](N)[C@H](O[C@H]3O[C@H](CO)[C@@H](O)[C@H](N)[C@H]3O)[C@H]2O)[C@H](O)[C@@H](O)[C@@H]1O

> <JCHEM_ACCEPTOR_COUNT>
15

> <JCHEM_DONOR_COUNT>
11

> <JCHEM_ACIDIC_PKA>
12.11

> <JCHEM_BASIC_PKA>
9.75

> <JCHEM_PHYSIOLOGICAL_CHARGE>
4

> <ALOGPS_LOGP>
-3.1

> <JCHEM_LOGP>
-7.1

> <ALOGPS_LOGS>
-0.72

> <JCHEM_POLARIZABILITY>
47.29

> <JCHEM_POLAR_SURFACE_AREA>
282.61

> <JCHEM_REFRACTIVITY>
106.13

> <JCHEM_ROTATABLE_BOND_COUNT>
6

> <ALOGPS_SOLUBILITY>
9.23e+01 g/l __ 

$$$$
