LI6
  Mrv0541 02231215422D          

 14 15  0  0  0  0            999 V2000
   -1.1747   -0.5580    0.0000 C   0  0  0  0  0  0  0  0  0  0  0  0
   -0.4602   -0.1455    0.0000 C   0  0  0  0  0  0  0  0  0  0  0  0
   -0.4602    0.6795    0.0000 C   0  0  0  0  0  0  0  0  0  0  0  0
    0.2543    1.0920    0.0000 C   0  0  0  0  0  0  0  0  0  0  0  0
    0.9687    0.6795    0.0000 C   0  0  0  0  0  0  0  0  0  0  0  0
    1.6832   -0.5580    0.0000 O   0  0  0  0  0  0  0  0  0  0  0  0
    0.9687   -0.1455    0.0000 C   0  0  0  0  0  0  0  0  0  0  0  0
    1.6832    1.0920    0.0000 O   0  0  0  0  0  0  0  0  0  0  0  0
    0.2543   -0.5580    0.0000 N   0  0  0  0  0  0  0  0  0  0  0  0
    0.2543   -1.3830    0.0000 C   0  0  0  0  0  0  0  0  0  0  0  0
    0.2543    1.9170    0.0000 O   0  0  0  0  0  0  0  0  0  0  0  0
   -1.8891   -0.1455    0.0000 C   0  0  0  0  0  0  0  0  0  0  0  0
   -1.8891    0.6795    0.0000 C   0  0  0  0  0  0  0  0  0  0  0  0
   -1.1747    1.0920    0.0000 C   0  0  0  0  0  0  0  0  0  0  0  0
  1  2  2  0  0  0  0
  1 12  1  0  0  0  0
  2  3  1  0  0  0  0
  2  9  1  0  0  0  0
  3  4  1  0  0  0  0
  3 14  2  0  0  0  0
  4  5  2  0  0  0  0
  4 11  1  0  0  0  0
  5  7  1  0  0  0  0
  5  8  1  0  0  0  0
  6  7  2  0  0  0  0
  7  9  1  0  0  0  0
  9 10  1  0  0  0  0
 12 13  2  0  0  0  0
 13 14  1  0  0  0  0
M  END
> <DRUGBANK_ID>
DB01754

> <DRUG_GROUPS>
experimental

> <GENERIC_NAME>
3,4-Dihydroxy-1-Methylquinolin-2(1h)-One

> <CHEMICAL_FORMULA>
C10H9NO3

> <MOLECULAR_WEIGHT>
191.1834

> <EXACT_MASS>
191.058243159

> <IUPAC_NAME>
3,4-dihydroxy-1-methyl-1,2-dihydroquinolin-2-one

> <IUPAC_TRADITIONAL_NAME>
3,4-dihydroxy-1-methylquinolin-2-one

> <INCHI_IDENTIFIER>
InChI=1S/C10H9NO3/c1-11-7-5-3-2-4-6(7)8(12)9(13)10(11)14/h2-5,12-13H,1H3

> <INCHI_KEY>
InChIKey=BDLJEQMXDNMETQ-UHFFFAOYSA-N

> <SMILES>
CN1C(=O)C(O)=C(O)C2=CC=CC=C12

> <JCHEM_ACCEPTOR_COUNT>
3

> <JCHEM_DONOR_COUNT>
2

> <JCHEM_ACIDIC_PKA>
6.09

> <JCHEM_BASIC_PKA>
-3

> <JCHEM_PHYSIOLOGICAL_CHARGE>
-1

> <ALOGPS_LOGP>
0.03

> <JCHEM_LOGP>
0.46

> <ALOGPS_LOGS>
-1.1

> <JCHEM_POLARIZABILITY>
18.65

> <JCHEM_POLAR_SURFACE_AREA>
60.77

> <JCHEM_REFRACTIVITY>
52.25

> <JCHEM_ROTATABLE_BOND_COUNT>
0

> <ALOGPS_SOLUBILITY>
1.36e+01 g/l __ 

$$$$
