1152
  Mrv0541 02231215172D          

 79 82  0  0  1  0            999 V2000
    6.0482   -2.2449    0.0000 O   0  0  0  0  0  0  0  0  0  0  0  0
    6.0482   -3.1576    0.0000 O   0  0  0  0  0  0  0  0  0  0  0  0
    8.4196   -0.8758    0.0000 O   0  0  0  0  0  0  0  0  0  0  0  0
    4.8404    0.2796    0.0000 O   0  0  0  0  0  0  0  0  0  0  0  0
    4.8493   -1.3013    0.0000 O   0  0  0  0  0  0  0  0  0  0  0  0
    7.6306   -4.5530    0.0000 O   0  0  0  0  0  0  0  0  0  0  0  0
    8.2078   -0.0853    0.0000 O   0  0  0  0  0  0  0  0  0  0  0  0
    6.8387    0.7051    0.0000 O   0  0  0  0  0  0  0  0  0  0  0  0
    3.0150    0.2694    0.0000 O   0  0  0  0  0  0  0  0  0  0  0  0
    9.4699   -5.2334    0.0000 O   0  0  0  0  0  0  0  0  0  0  0  0
    3.0327   -2.8924    0.0000 O   0  0  0  0  0  0  0  0  0  0  0  0
   11.4310   -5.2422    0.0000 O   0  0  0  0  0  0  0  0  0  0  0  0
   15.1265    1.1277    0.0000 O   0  0  0  0  0  0  0  0  0  0  0  0
   17.8682    0.4756    0.0000 O   0  0  0  0  0  0  0  0  0  0  0  0
   13.2763   -4.5784    0.0000 O   0  0  0  0  0  0  0  0  0  0  0  0
   16.1104    0.3049    0.0000 O   0  0  0  0  0  0  0  0  0  0  0  0
   19.4250    0.2005    0.0000 O   0  0  0  0  0  0  0  0  0  0  0  0
   15.7669   -1.6260    0.0000 O   0  0  0  0  0  0  0  0  0  0  0  0
    2.1112   -1.3167    0.0000 N   0  0  0  0  0  0  0  0  0  0  0  0
   23.0150    2.3468    0.0000 N   0  0  0  0  0  0  0  0  0  0  0  0
    6.8387   -2.7012    0.0000 C   0  0  0  0  0  0  0  0  0  0  0  0
    6.0482   -1.3322    0.0000 C   0  0  0  0  0  0  0  0  0  0  0  0
    6.8387   -0.8758    0.0000 C   0  0  0  0  0  0  0  0  0  0  0  0
    7.6292   -1.3322    0.0000 C   0  0  0  0  0  0  0  0  0  0  0  0
    7.6292   -2.2449    0.0000 C   0  0  0  0  0  0  0  0  0  0  0  0
    7.4184   -3.2881    0.0000 C   0  0  0  0  0  0  0  0  0  0  0  0
    5.8298   -0.5366    0.0000 C   0  0  0  0  0  0  0  0  0  0  0  0
    8.0913   -3.7651    0.0000 C   0  0  0  0  0  0  0  0  0  0  0  0
    5.7532    0.2847    0.0000 C   0  0  0  0  0  0  0  0  0  0  0  0
    7.2950   -0.0853    0.0000 C   0  0  0  0  0  0  0  0  0  0  0  0
    8.8371   -4.1178    0.0000 C   0  0  0  0  0  0  0  0  0  0  0  0
    4.3885   -0.5135    0.0000 C   0  0  0  0  0  0  0  0  0  0  0  0
    3.4758   -0.5186    0.0000 C   0  0  2  0  0  0  0  0  0  0  0  0
    3.0239   -1.3115    0.0000 C   0  0  2  0  0  0  0  0  0  0  0  0
    9.6328   -4.3353    0.0000 C   0  0  0  0  0  0  0  0  0  0  0  0
    3.4847   -2.0995    0.0000 C   0  0  1  0  0  0  0  0  0  0  0  0
    4.3974   -2.0944    0.0000 C   0  0  1  0  0  0  0  0  0  0  0  0
    5.8207    1.1068    0.0000 C   0  0  0  0  0  0  0  0  0  0  0  0
   10.4542   -4.4111    0.0000 C   0  0  0  0  0  0  0  0  0  0  0  0
   11.2762   -4.3427    0.0000 C   0  0  0  0  0  0  0  0  0  0  0  0
    4.8582   -2.8822    0.0000 C   0  0  0  0  0  0  0  0  0  0  0  0
    6.0301    1.9047    0.0000 C   0  0  0  0  0  0  0  0  0  0  0  0
   15.7713    2.2365    0.0000 C   0  0  0  0  0  0  0  0  0  0  0  0
   16.4702    1.6495    0.0000 C   0  0  0  0  0  0  0  0  0  0  0  0
   17.3281    1.9614    0.0000 C   0  0  0  0  0  0  0  0  0  0  0  0
   14.9135    1.9246    0.0000 C   0  0  0  0  0  0  0  0  0  0  0  0
   12.0739   -4.1323    0.0000 C   0  0  0  0  0  0  0  0  0  0  0  0
   14.5650    2.6723    0.0000 C   0  0  0  0  0  0  0  0  0  0  0  0
   18.0270    1.3744    0.0000 C   0  0  0  0  0  0  0  0  0  0  0  0
   15.9301    3.1352    0.0000 C   0  0  0  0  0  0  0  0  0  0  0  0
   17.4868    2.8601    0.0000 C   0  0  0  0  0  0  0  0  0  0  0  0
    6.3752    2.6538    0.0000 C   0  0  0  0  0  0  0  0  0  0  0  0
   12.8228   -3.7864    0.0000 C   0  0  0  0  0  0  0  0  0  0  0  0
   18.8848    1.6861    0.0000 C   0  0  0  0  0  0  0  0  0  0  0  0
   15.3554    3.1287    0.0000 C   0  0  0  0  0  0  0  0  0  0  0  0
   13.4999   -3.3153    0.0000 C   0  0  0  0  0  0  0  0  0  0  0  0
   14.0917    3.3479    0.0000 C   0  0  0  0  0  0  0  0  0  0  0  0
   14.0849   -2.7337    0.0000 C   0  0  0  0  0  0  0  0  0  0  0  0
    6.8455    3.3317    0.0000 C   0  0  0  0  0  0  0  0  0  0  0  0
   15.1976    0.3059    0.0000 C   0  0  0  0  0  0  0  0  0  0  0  0
   19.5838    1.0993    0.0000 C   0  0  0  0  0  0  0  0  0  0  0  0
   14.5597   -2.0591    0.0000 C   0  0  0  0  0  0  0  0  0  0  0  0
   15.1247   -0.5158    0.0000 C   0  0  0  0  0  0  0  0  0  0  0  0
   13.5080    3.9309    0.0000 C   0  0  0  0  0  0  0  0  0  0  0  0
   14.9098   -1.3123    0.0000 C   0  0  0  0  0  0  0  0  0  0  0  0
   20.4417    1.4111    0.0000 C   0  0  0  0  0  0  0  0  0  0  0  0
    7.4265    3.9172    0.0000 C   0  0  0  0  0  0  0  0  0  0  0  0
   12.8319    4.4034    0.0000 C   0  0  0  0  0  0  0  0  0  0  0  0
   20.6005    2.3100    0.0000 C   0  0  0  0  0  0  0  0  0  0  0  0
   21.1406    0.8242    0.0000 C   0  0  0  0  0  0  0  0  0  0  0  0
    8.1005    4.3927    0.0000 C   0  0  0  0  0  0  0  0  0  0  0  0
   21.4583    2.6219    0.0000 C   0  0  0  0  0  0  0  0  0  0  0  0
   21.9984    1.1360    0.0000 C   0  0  0  0  0  0  0  0  0  0  0  0
   12.0838    4.7510    0.0000 C   0  0  0  0  0  0  0  0  0  0  0  0
   22.1572    2.0348    0.0000 C   0  0  0  0  0  0  0  0  0  0  0  0
    8.8470    4.7438    0.0000 C   0  0  0  0  0  0  0  0  0  0  0  0
   11.2867    4.9632    0.0000 C   0  0  0  0  0  0  0  0  0  0  0  0
    9.6432    4.9594    0.0000 C   0  0  0  0  0  0  0  0  0  0  0  0
   10.4648    5.0334    0.0000 C   0  0  0  0  0  0  0  0  0  0  0  0
  1 21  1  0  0  0  0
  1 22  1  0  0  0  0
  2 21  1  0  0  0  0
  3 24  1  0  0  0  0
  4 29  1  0  0  0  0
  4 32  1  0  0  0  0
  5 32  1  0  0  0  0
  5 37  1  0  0  0  0
  6 28  1  0  0  0  0
  7 30  1  0  0  0  0
  8 30  2  0  0  0  0
 33  9  1  6  0  0  0
 10 35  1  0  0  0  0
 36 11  1  1  0  0  0
 12 40  1  0  0  0  0
 13 46  1  0  0  0  0
 13 60  1  0  0  0  0
 14 49  1  0  0  0  0
 15 53  2  0  0  0  0
 16 60  2  0  0  0  0
 17 61  2  0  0  0  0
 18 65  2  0  0  0  0
 34 19  1  6  0  0  0
 20 75  1  0  0  0  0
 21 25  1  0  0  0  0
 21 26  1  0  0  0  0
 22 23  1  0  0  0  0
 22 27  1  0  0  0  0
 23 24  1  0  0  0  0
 23 30  1  0  0  0  0
 24 25  1  0  0  0  0
 26 28  1  0  0  0  0
 27 29  1  0  0  0  0
 28 31  1  0  0  0  0
 29 38  1  0  0  0  0
 31 35  1  0  0  0  0
 32 33  1  0  0  0  0
 33 34  1  0  0  0  0
 34 36  1  0  0  0  0
 35 39  1  0  0  0  0
 36 37  1  0  0  0  0
 37 41  1  6  0  0  0
 38 42  2  0  0  0  0
 39 40  1  0  0  0  0
 40 47  1  0  0  0  0
 42 52  1  0  0  0  0
 43 44  1  0  0  0  0
 43 46  1  0  0  0  0
 43 50  1  0  0  0  0
 44 45  1  0  0  0  0
 45 49  1  0  0  0  0
 45 51  1  0  0  0  0
 46 48  1  0  0  0  0
 47 53  1  0  0  0  0
 48 55  1  0  0  0  0
 48 57  1  0  0  0  0
 49 54  1  0  0  0  0
 52 59  2  0  0  0  0
 53 56  1  0  0  0  0
 54 61  1  0  0  0  0
 56 58  1  0  0  0  0
 57 64  2  0  0  0  0
 58 62  1  0  0  0  0
 59 67  1  0  0  0  0
 60 63  1  0  0  0  0
 61 66  1  0  0  0  0
 62 65  1  0  0  0  0
 63 65  1  0  0  0  0
 64 68  1  0  0  0  0
 66 69  2  0  0  0  0
 66 70  1  0  0  0  0
 67 71  2  0  0  0  0
 68 74  2  0  0  0  0
 69 72  1  0  0  0  0
 70 73  2  0  0  0  0
 71 76  1  0  0  0  0
 72 75  2  0  0  0  0
 73 75  1  0  0  0  0
 74 77  1  0  0  0  0
 76 78  2  0  0  0  0
 77 79  2  0  0  0  0
 78 79  1  0  0  0  0
M  END
> <DRUGBANK_ID>
DB01152

> <DRUG_GROUPS>
approved

> <GENERIC_NAME>
Candicidin

> <BRANDS>


> <CHEMICAL_FORMULA>
C59H84N2O18

> <MOLECULAR_WEIGHT>
1109.3009

> <EXACT_MASS>
1108.571913894

> <IUPAC_NAME>
33-{[(3S,4S,5S,6R)-4-amino-3,5-dihydroxy-6-methyloxan-2-yl]oxy}-17-[7-(4-aminophenyl)-5-hydroxy-4-methyl-7-oxoheptan-2-yl]-1,3,5,7,37-pentahydroxy-18-methyl-9,13,15-trioxo-16,39-dioxabicyclo[33.3.1]nonatriaconta-19,21,23,25,27,29,31-heptaene-36-carboxylic acid

> <IUPAC_TRADITIONAL_NAME>
candicidin

> <INCHI_IDENTIFIER>
InChI=1S/C59H84N2O18/c1-35-18-15-13-11-9-7-5-6-8-10-12-14-16-21-46(77-58-55(72)53(61)54(71)38(4)76-58)31-50-52(57(73)74)49(69)34-59(75,79-50)33-45(66)29-44(65)28-43(64)27-41(62)19-17-20-42(63)30-51(70)78-56(35)37(3)26-36(2)47(67)32-48(68)39-22-24-40(60)25-23-39/h5-16,18,21-25,35-38,43-47,49-50,52-56,58,64-67,69,71-72,75H,17,19-20,26-34,60-61H2,1-4H3,(H,73,74)/b6-5-,9-7-,10-8-,13-11-,14-12-,18-15-,21-16-/t35?,36?,37?,38-,43?,44?,45?,46?,47?,49?,50?,52?,53+,54-,55+,56?,58?,59?/m1/s1

> <INCHI_KEY>
InChIKey=YKSVGLFNJPQDJE-WDANKXQLSA-N

> <SMILES>
CC(CC(C)C1OC(=O)CC(=O)CCCC(=O)CC(O)CC(O)CC(O)CC2(O)CC(O)C(C(CC(OC3O[C@H](C)[C@@H](O)[C@H](N)[C@@H]3O)\C=C/C=C\C=C/C=C\C=C/C=C\C=C/C1C)O2)C(O)=O)C(O)CC(=O)C1=CC=C(N)C=C1

> <JCHEM_ACCEPTOR_COUNT>
19

> <JCHEM_DONOR_COUNT>
11

> <JCHEM_ACIDIC_PKA>
3.68

> <JCHEM_BASIC_PKA>
9.07

> <JCHEM_PHYSIOLOGICAL_CHARGE>
0

> <ALOGPS_LOGP>
-0.94

> <JCHEM_LOGP>
0.93

> <ALOGPS_LOGS>
-5.1

> <JCHEM_POLARIZABILITY>
119.88

> <JCHEM_POLAR_SURFACE_AREA>
356.38

> <JCHEM_REFRACTIVITY>
300.5

> <JCHEM_ROTATABLE_BOND_COUNT>
10

> <ALOGPS_SOLUBILITY>
9.34e-03 g/l __ 

$$$$
