
  Mrv0541 02231215412D          

  7  6  0  0  1  0            999 V2000
    2.4750   -1.4289    0.0000 C   0  0  0  0  0  0  0  0  0  0  0  0
    2.0625   -0.7145    0.0000 C   0  0  2  0  0  0  0  0  0  0  0  0
    2.4750    0.0000    0.0000 O   0  0  0  0  0  0  0  0  0  0  0  0
    1.2375   -0.7145    0.0000 C   0  0  2  0  0  0  0  0  0  0  0  0
    0.8250   -1.4289    0.0000 N   0  0  0  0  0  0  0  0  0  0  0  0
    0.8250    0.0000    0.0000 C   0  0  0  0  0  0  0  0  0  0  0  0
    0.0000    0.0000    0.0000 O   0  0  0  0  0  0  0  0  0  0  0  0
  1  2  1  0  0  0  0
  2  3  1  1  0  0  0
  2  4  1  0  0  0  0
  4  5  1  6  0  0  0
  4  6  1  0  0  0  0
  6  7  1  0  0  0  0
M  END
> <DRUGBANK_ID>
DB01724

> <DRUG_GROUPS>
experimental

> <GENERIC_NAME>
Reduced Threonine

> <CHEMICAL_FORMULA>
C4H11NO2

> <MOLECULAR_WEIGHT>
105.1356

> <EXACT_MASS>
105.078978601

> <IUPAC_NAME>
(2R,3S)-2-aminobutane-1,3-diol

> <IUPAC_TRADITIONAL_NAME>
reduced threonine

> <INCHI_IDENTIFIER>
InChI=1S/C4H11NO2/c1-3(7)4(5)2-6/h3-4,6-7H,2,5H2,1H3/t3-,4+/m0/s1

> <INCHI_KEY>
InChIKey=MUVQIIBPDFTEKM-IUYQGCFVSA-N

> <SMILES>
C[C@H](O)[C@H](N)CO

> <JCHEM_ACCEPTOR_COUNT>
3

> <JCHEM_DONOR_COUNT>
3

> <JCHEM_ACIDIC_PKA>
14.64

> <JCHEM_BASIC_PKA>
9.3

> <JCHEM_PHYSIOLOGICAL_CHARGE>
1

> <ALOGPS_LOGP>
-1.4

> <JCHEM_LOGP>
-1.5

> <ALOGPS_LOGS>
0.88

> <JCHEM_POLARIZABILITY>
11.15

> <JCHEM_POLAR_SURFACE_AREA>
66.48

> <JCHEM_REFRACTIVITY>
26.59

> <JCHEM_ROTATABLE_BOND_COUNT>
2

> <ALOGPS_SOLUBILITY>
8.05e+02 g/l __ 

$$$$
