
  Mrv0541 02231215452D          

  2  1  0  0  0  0            999 V2000
     0.825     0.000     0.000 C   0  0  0  0  0  0  0  0  0  0  0  0
     0.000     0.000     0.000 N   0  0  0  0  0  0  0  0  0  0  0  0
  1  2  1  0  0  0  0
M  END
> <DRUGBANK_ID>
DB01828

> <DRUG_GROUPS>
experimental

> <GENERIC_NAME>
Methylamine

> <CHEMICAL_FORMULA>
CH5N

> <MOLECULAR_WEIGHT>
31.0571

> <EXACT_MASS>
31.042199165

> <IUPAC_NAME>
methanamine

> <IUPAC_TRADITIONAL_NAME>
methylamine

> <INCHI_IDENTIFIER>
InChI=1S/CH5N/c1-2/h2H2,1H3

> <INCHI_KEY>
InChIKey=BAVYZALUXZFZLV-UHFFFAOYSA-N

> <SMILES>
CN

> <JCHEM_ACCEPTOR_COUNT>
1

> <JCHEM_DONOR_COUNT>
1

> <JCHEM_BASIC_PKA>
10.08

> <JCHEM_PHYSIOLOGICAL_CHARGE>
1

> <ALOGPS_LOGP>
-1.1

> <JCHEM_LOGP>
-0.63

> <ALOGPS_LOGS>
1.07

> <JCHEM_POLARIZABILITY>
3.86

> <JCHEM_POLAR_SURFACE_AREA>
26.02

> <JCHEM_REFRACTIVITY>
9.92

> <JCHEM_ROTATABLE_BOND_COUNT>
0

> <ALOGPS_SOLUBILITY>
3.67e+02 g/l __ 

$$$$
