 
  Mrv0541 02231215222D          
 
 40 44  0  0  1  0            999 V2000
   14.0105   -9.9160    0.0000 C   0  0  0  0  0  0  0  0  0  0  0  0
   14.0105  -10.7680    0.0000 C   0  0  0  0  0  0  0  0  0  0  0  0
   14.7250  -11.1803    0.0000 C   0  0  0  0  0  0  0  0  0  0  0  0
   14.7250   -9.5038    0.0000 C   0  0  0  0  0  0  0  0  0  0  0  0
   15.4397   -9.9160    0.0000 C   0  0  0  0  0  0  0  0  0  0  0  0
   15.4397  -10.7680    0.0000 C   0  0  0  0  0  0  0  0  0  0  0  0
   16.1542  -11.1803    0.0000 C   0  0  0  0  0  0  0  0  0  0  0  0
   16.1542   -9.5038    0.0000 C   0  0  1  0  0  0  0  0  0  0  0  0
   16.8688   -9.9435    0.0000 C   0  0  2  0  0  0  0  0  0  0  0  0
   16.8688  -10.7680    0.0000 C   0  0  0  0  0  0  0  0  0  0  0  0
   17.5834  -11.1803    0.0000 C   0  0  0  0  0  0  0  0  0  0  0  0
   17.6109   -9.5313    0.0000 C   0  0  0  0  0  0  0  0  0  0  0  0
   18.2980   -9.9435    0.0000 C   0  0  2  0  0  0  0  0  0  0  0  0
   18.2980  -10.7680    0.0000 C   0  0  1  0  0  0  0  0  0  0  0  0
   19.0126  -11.1803    0.0000 C   0  0  0  0  0  0  0  0  0  0  0  0
   19.7272  -10.7955    0.0000 C   0  0  0  0  0  0  0  0  0  0  0  0
   19.7272   -9.9710    0.0000 C   0  0  0  0  0  0  0  0  0  0  0  0
   19.0400   -9.5313    0.0000 C   0  0  1  0  0  0  0  0  0  0  0  0
   20.4418  -11.2078    0.0000 C   0  0  0  0  0  0  0  0  0  0  0  0
   21.1564  -10.7955    0.0000 N   0  0  0  0  0  0  0  0  0  0  0  0
   21.8709  -11.2078    0.0000 C   0  0  0  0  0  0  0  0  0  0  0  0
   22.5855  -10.7955    0.0000 N   0  0  0  0  0  0  0  0  0  0  0  0
   23.3794  -11.0612    0.0000 C   0  0  0  0  0  0  0  0  0  0  0  0
   23.8772  -10.4131    0.0000 C   0  0  0  0  0  0  0  0  0  0  0  0
   23.4049   -9.7077    0.0000 C   0  0  0  0  0  0  0  0  0  0  0  0
   22.5992   -9.9676    0.0000 C   0  0  0  0  0  0  0  0  0  0  0  0
   19.0400   -8.7067    0.0000 N   0  0  0  0  0  0  0  0  0  0  0  0
   19.7547   -8.3220    0.0000 C   0  0  0  0  0  0  0  0  0  0  0  0
   18.3255   -8.2945    0.0000 C   0  0  0  0  0  0  0  0  0  0  0  0
   18.2980   -9.2430    0.0000 H   0  0  0  0  0  0  0  0  0  0  0  0
   16.8688   -9.2979    0.0000 H   0  0  0  0  0  0  0  0  0  0  0  0
   16.4841   -8.6239    0.0000 C   0  0  0  0  0  0  0  0  0  0  0  0
   15.7420   -8.6239    0.0000 O   0  0  0  0  0  0  0  0  0  0  0  0
   14.7250  -12.0049    0.0000 O   0  0  0  0  0  0  0  0  0  0  0  0
   16.1542  -12.0049    0.0000 O   0  0  0  0  0  0  0  0  0  0  0  0
   17.5834  -12.0049    0.0000 O   0  0  0  0  0  0  0  0  0  0  0  0
   19.0126  -12.0323    0.0000 O   0  0  0  0  0  0  0  0  0  0  0  0
   20.4418  -12.0323    0.0000 O   0  0  0  0  0  0  0  0  0  0  0  0
   20.4693   -9.5588    0.0000 O   0  0  0  0  0  0  0  0  0  0  0  0
   18.2980  -11.5925    0.0000 O   0  0  0  0  0  0  0  0  0  0  0  0
  5  4  2  0  0  0  0
 21 22  1  0  0  0  0
  4  1  1  0  0  0  0
  9 10  1  0  0  0  0
 10 11  2  0  0  0  0
 22 23  1  0  0  0  0
 23 24  1  0  0  0  0
 24 25  1  0  0  0  0
 25 26  1  0  0  0  0
 26 22  1  0  0  0  0
 11 14  1  0  0  0  0
 18 27  1  6  0  0  0
 13 12  1  0  0  0  0
 27 28  1  0  0  0  0
 12  9  1  0  0  0  0
 27 29  1  0  0  0  0
 13 30  1  6  0  0  0
  1  2  2  0  0  0  0
  9 31  1  6  0  0  0
  2  3  1  0  0  0  0
  8 32  1  6  0  0  0
  5  6  1  0  0  0  0
  8 33  1  1  0  0  0
  6  7  1  0  0  0  0
  3 34  1  0  0  0  0
  7 10  1  0  0  0  0
  7 35  2  0  0  0  0
 13 14  1  0  0  0  0
 11 36  1  0  0  0  0
 14 15  1  0  0  0  0
 15 37  2  0  0  0  0
 15 16  1  0  0  0  0
 19 38  2  0  0  0  0
 16 17  2  0  0  0  0
 17 39  1  0  0  0  0
 17 18  1  0  0  0  0
 14 40  1  6  0  0  0
 18 13  1  0  0  0  0
  9  8  1  0  0  0  0
 16 19  1  0  0  0  0
  8  5  1  0  0  0  0
 19 20  1  0  0  0  0
  3  6  2  0  0  0  0
 20 21  1  0  0  0  0
M  END
> <DRUGBANK_ID>
DB01301

> <DRUG_GROUPS>
approved

> <GENERIC_NAME>
Rolitetracycline

> <CHEMICAL_FORMULA>
C27H33N3O8

> <MOLECULAR_WEIGHT>
527.5662

> <EXACT_MASS>
527.226765047

> <IUPAC_NAME>
(4S,4aS,5aS,6S,12aS)-4-(dimethylamino)-3,6,10,12,12a-pentahydroxy-6-methyl-1,11-dioxo-N-(pyrrolidin-1-ylmethyl)-1,4,4a,5,5a,6,11,12a-octahydrotetracene-2-carboxamide

> <IUPAC_TRADITIONAL_NAME>
(4S,4aS,5aS,6S,12aS)-4-(dimethylamino)-3,6,10,12,12a-pentahydroxy-6-methyl-1,11-dioxo-N-(pyrrolidin-1-ylmethyl)-4,4a,5,5a-tetrahydrotetracene-2-carboxamide

> <INCHI_IDENTIFIER>
InChI=1S/C27H33N3O8/c1-26(37)13-7-6-8-16(31)17(13)21(32)18-14(26)11-15-20(29(2)3)22(33)19(24(35)27(15,38)23(18)34)25(36)28-12-30-9-4-5-10-30/h6-8,14-15,20,31,33-34,37-38H,4-5,9-12H2,1-3H3,(H,28,36)/t14-,15-,20-,26+,27-/m0/s1

> <INCHI_KEY>
InChIKey=HMEYVGGHISAPJR-IAHYZSEUSA-N

> <SMILES>
[H][C@@]12C[C@@]3([H])C(C(=O)C4=C(O)C=CC=C4[C@@]3(C)O)=C(O)[C@]1(O)C(=O)C(C(=O)NCN1CCCC1)=C(O)[C@H]2N(C)C

> <JCHEM_ACCEPTOR_COUNT>
10

> <JCHEM_DONOR_COUNT>
6

> <JCHEM_ACIDIC_PKA>
0.31

> <JCHEM_BASIC_PKA>
8.24

> <JCHEM_PHYSIOLOGICAL_CHARGE>
-1

> <ALOGPS_LOGP>
-0.08

> <JCHEM_LOGP>
-3.8

> <ALOGPS_LOGS>
-2.5

> <JCHEM_POLARIZABILITY>
54.05

> <JCHEM_POLAR_SURFACE_AREA>
170.87

> <JCHEM_REFRACTIVITY>
139.45

> <JCHEM_ROTATABLE_BOND_COUNT>
4

> <ALOGPS_SOLUBILITY>
1.81e+00 g/l __ 

$$$$
