L12
  Mrv0541 02231215512D          

 17 19  0  0  0  0            999 V2000
    0.1345    0.6137    0.0000 C   0  0  0  0  0  0  0  0  0  0  0  0
   -0.1204   -0.1709    0.0000 C   0  0  0  0  0  0  0  0  0  0  0  0
   -0.9274   -0.3425    0.0000 C   0  0  0  0  0  0  0  0  0  0  0  0
   -1.1823   -1.1271    0.0000 C   0  0  0  0  0  0  0  0  0  0  0  0
   -0.6303   -1.7402    0.0000 C   0  0  0  0  0  0  0  0  0  0  0  0
   -0.8852   -2.5248    0.0000 C   0  0  0  0  0  0  0  0  0  0  0  0
   -1.6922   -2.6963    0.0000 N   0  0  0  0  0  0  0  0  0  0  0  0
   -2.2443   -2.0832    0.0000 C   0  0  0  0  0  0  0  0  0  0  0  0
   -1.9893   -1.2986    0.0000 C   0  0  0  0  0  0  0  0  0  0  0  0
   -0.3504    1.2811    0.0000 C   0  0  0  0  0  0  0  0  0  0  0  0
    1.6336    0.4561    0.0000 C   0  0  0  0  0  0  0  0  0  0  0  0
    0.9191    0.8686    0.0000 C   0  0  0  0  0  0  0  0  0  0  0  0
    0.9191    1.6936    0.0000 C   0  0  0  0  0  0  0  0  0  0  0  0
    1.6336    2.1061    0.0000 C   0  0  0  0  0  0  0  0  0  0  0  0
    2.3481    1.6936    0.0000 C   0  0  0  0  0  0  0  0  0  0  0  0
    0.1345    1.9486    0.0000 N   0  0  0  0  0  0  0  0  0  0  0  0
    2.3481    0.8686    0.0000 C   0  0  0  0  0  0  0  0  0  0  0  0
  1  2  1  0  0  0  0
  1 10  2  0  0  0  0
  1 12  1  0  0  0  0
  2  3  1  0  0  0  0
  3  4  1  0  0  0  0
  4  5  2  0  0  0  0
  4  9  1  0  0  0  0
  5  6  1  0  0  0  0
  6  7  2  0  0  0  0
  7  8  1  0  0  0  0
  8  9  2  0  0  0  0
 10 16  1  0  0  0  0
 11 12  2  0  0  0  0
 11 17  1  0  0  0  0
 12 13  1  0  0  0  0
 13 14  2  0  0  0  0
 13 16  1  0  0  0  0
 14 15  1  0  0  0  0
 15 17  2  0  0  0  0
M  END
> <DRUGBANK_ID>
DB01953

> <DRUG_GROUPS>
experimental

> <GENERIC_NAME>
Inhibitor of P38 Kinase

> <CHEMICAL_FORMULA>
C15H14N2

> <MOLECULAR_WEIGHT>
222.2851

> <EXACT_MASS>
222.115698458

> <IUPAC_NAME>
3-[2-(pyridin-4-yl)ethyl]-1H-indole

> <IUPAC_TRADITIONAL_NAME>
3-[2-(pyridin-4-yl)ethyl]-1H-indole

> <INCHI_IDENTIFIER>
InChI=1S/C15H14N2/c1-2-4-15-14(3-1)13(11-17-15)6-5-12-7-9-16-10-8-12/h1-4,7-11,17H,5-6H2

> <INCHI_KEY>
InChIKey=UUEYCHLWAOBOHG-UHFFFAOYSA-N

> <SMILES>
C(CC1=CC=NC=C1)C1=CNC2=CC=CC=C12

> <JCHEM_ACCEPTOR_COUNT>
1

> <JCHEM_DONOR_COUNT>
1

> <JCHEM_ACIDIC_PKA>
17.28

> <JCHEM_BASIC_PKA>
5.67

> <JCHEM_PHYSIOLOGICAL_CHARGE>
0

> <ALOGPS_LOGP>
3.9

> <JCHEM_LOGP>
3.39

> <ALOGPS_LOGS>
-4.4

> <JCHEM_POLARIZABILITY>
25.21

> <JCHEM_POLAR_SURFACE_AREA>
28.68

> <JCHEM_REFRACTIVITY>
69.33

> <JCHEM_ROTATABLE_BOND_COUNT>
3

> <ALOGPS_SOLUBILITY>
8.69e-03 g/l __ 

$$$$
