
  Mrv0541 02231215442D          

  7  6  0  0  1  0            999 V2000
    2.0625    0.7145    0.0000 N   0  3  0  0  0  0  0  0  0  0  0  0
    1.2375    0.7145    0.0000 C   0  0  2  0  0  0  0  0  0  0  0  0
    0.8250    1.4289    0.0000 C   0  0  0  0  0  0  0  0  0  0  0  0
    1.2375    2.1434    0.0000 C   0  0  0  0  0  0  0  0  0  0  0  0
    0.8250    0.0000    0.0000 C   0  0  0  0  0  0  0  0  0  0  0  0
    1.2375   -0.7145    0.0000 O   0  5  0  0  0  0  0  0  0  0  0  0
    0.0000    0.0000    0.0000 O   0  0  0  0  0  0  0  0  0  0  0  0
  2  1  1  1  0  0  0
  2  3  1  0  0  0  0
  3  4  2  0  0  0  0
  2  5  1  0  0  0  0
  5  6  1  0  0  0  0
  5  7  2  0  0  0  0
M  END
> <DRUGBANK_ID>
DB01804

> <DRUG_GROUPS>
experimental

> <GENERIC_NAME>
2-Ammoniobut-3-Enoate, 2-Amino-3-Butenoate

> <CHEMICAL_FORMULA>
C4H7NO2

> <MOLECULAR_WEIGHT>
101.1039

> <EXACT_MASS>
101.047678473

> <IUPAC_NAME>
(2R)-2-azaniumylbut-3-enoate

> <IUPAC_TRADITIONAL_NAME>
(2R)-2-aminiobut-3-enoate

> <INCHI_IDENTIFIER>
InChI=1S/C4H7NO2/c1-2-3(5)4(6)7/h2-3H,1,5H2,(H,6,7)/t3-/m1/s1

> <INCHI_KEY>
InChIKey=RQVLGLPAZTUBKX-GSVOUGTGSA-N

> <SMILES>
[NH3+][C@H](C=C)C([O-])=O

> <JCHEM_ACCEPTOR_COUNT>
2

> <JCHEM_DONOR_COUNT>
1

> <JCHEM_ACIDIC_PKA>
2.42

> <JCHEM_BASIC_PKA>
8.95

> <JCHEM_PHYSIOLOGICAL_CHARGE>
0

> <ALOGPS_LOGP>
-1.7

> <JCHEM_LOGP>
-2.5

> <ALOGPS_LOGS>
-1.3

> <JCHEM_POLARIZABILITY>
9.57

> <JCHEM_POLAR_SURFACE_AREA>
67.77

> <JCHEM_REFRACTIVITY>
47.04

> <JCHEM_ROTATABLE_BOND_COUNT>
2

> <ALOGPS_SOLUBILITY>
7.71e+00 g/l __ 

$$$$
