
  Mrv0541 02231215372D          

 24 26  0  0  1  0            999 V2000
   -2.1434    2.0625    0.0000 N   0  0  0  0  0  0  0  0  0  0  0  0
   -1.4289    2.4750    0.0000 C   0  0  1  0  0  0  0  0  0  0  0  0
   -0.7145    2.0625    0.0000 C   0  0  0  0  0  0  0  0  0  0  0  0
   -0.7145    1.2375    0.0000 C   0  0  2  0  0  0  0  0  0  0  0  0
    0.0000    0.8250    0.0000 C   0  0  0  0  0  0  0  0  0  0  0  0
    0.0000    0.0000    0.0000 C   0  0  0  0  0  0  0  0  0  0  0  0
    0.7145   -0.4125    0.0000 N   0  0  0  0  0  0  0  0  0  0  0  0
    0.7145   -1.2375    0.0000 C   0  0  2  0  0  0  0  0  0  0  0  0
    1.1270   -1.9520    0.0000 C   0  0  0  0  0  0  0  0  0  0  0  0
    0.3020   -1.9520    0.0000 C   0  0  1  0  0  0  0  0  0  0  0  0
   -0.4125   -2.3645    0.0000 C   0  0  0  0  0  0  0  0  0  0  0  0
   -0.4125   -3.1895    0.0000 C   0  0  0  0  0  0  0  0  0  0  0  0
   -1.1270   -3.6020    0.0000 C   0  0  0  0  0  0  0  0  0  0  0  0
   -1.8414   -3.1895    0.0000 C   0  0  0  0  0  0  0  0  0  0  0  0
   -1.8414   -2.3645    0.0000 C   0  0  0  0  0  0  0  0  0  0  0  0
   -1.1270   -1.9520    0.0000 C   0  0  0  0  0  0  0  0  0  0  0  0
   -0.7145   -0.4125    0.0000 C   0  0  0  0  0  0  0  0  0  0  0  0
   -0.7145   -1.2375    0.0000 O   0  0  0  0  0  0  0  0  0  0  0  0
   -1.4289    0.0000    0.0000 C   0  0  0  0  0  0  0  0  0  0  0  0
   -1.4289    0.8250    0.0000 C   0  0  0  0  0  0  0  0  0  0  0  0
   -2.1434    1.2375    0.0000 O   0  0  0  0  0  0  0  0  0  0  0  0
   -1.4289    3.3000    0.0000 C   0  0  0  0  0  0  0  0  0  0  0  0
   -2.1434    3.7125    0.0000 O   0  0  0  0  0  0  0  0  0  0  0  0
   -0.7145    3.7125    0.0000 O   0  0  0  0  0  0  0  0  0  0  0  0
  2  1  1  6  0  0  0
  2  3  1  0  0  0  0
  4  3  1  6  0  0  0
  4  5  1  0  0  0  0
  5  6  1  0  0  0  0
  6  7  2  0  0  0  0
  8  7  1  6  0  0  0
  8  9  1  0  0  0  0
  9 10  1  0  0  0  0
  8 10  1  0  0  0  0
 10 11  1  1  0  0  0
 11 12  2  0  0  0  0
 12 13  1  0  0  0  0
 13 14  2  0  0  0  0
 14 15  1  0  0  0  0
 15 16  2  0  0  0  0
 11 16  1  0  0  0  0
  6 17  1  0  0  0  0
 17 18  1  0  0  0  0
 17 19  2  0  0  0  0
 19 20  1  0  0  0  0
  4 20  1  0  0  0  0
 20 21  2  0  0  0  0
  2 22  1  0  0  0  0
 22 23  1  0  0  0  0
 22 24  2  0  0  0  0
M  END
> <DRUGBANK_ID>
DB01657

> <DRUG_GROUPS>
experimental

> <GENERIC_NAME>
2-Amino-3-[4-Hydroxy-6-Oxo-3-(2-Phenyl-Cyclopropylimino)-Cyclohexa-1,4-Dienyl]-Propionic Acid

> <CHEMICAL_FORMULA>
C18H20N2O4

> <MOLECULAR_WEIGHT>
328.3624

> <EXACT_MASS>
328.142307138

> <IUPAC_NAME>
(2S)-2-amino-3-[(1R,5Z)-4-hydroxy-2-oxo-5-{[(1R,2S)-2-phenylcyclopropyl]imino}cyclohex-3-en-1-yl]propanoic acid

> <IUPAC_TRADITIONAL_NAME>
(2S)-2-amino-3-[(1R,5Z)-4-hydroxy-2-oxo-5-{[(1R,2S)-2-phenylcyclopropyl]imino}cyclohex-3-en-1-yl]propanoic acid

> <INCHI_IDENTIFIER>
InChI=1S/C18H20N2O4/c19-13(18(23)24)6-11-7-15(17(22)9-16(11)21)20-14-8-12(14)10-4-2-1-3-5-10/h1-5,9,11-14,22H,6-8,19H2,(H,23,24)/b20-15-/t11-,12+,13+,14-/m1/s1

> <INCHI_KEY>
InChIKey=QDTWKLJWNHRCPJ-WGCYKYFSSA-N

> <SMILES>
N[C@@H](C[C@@H]1C\C(=N\[C@@H]2C[C@H]2C2=CC=CC=C2)C(O)=CC1=O)C(O)=O

> <JCHEM_ACCEPTOR_COUNT>
6

> <JCHEM_DONOR_COUNT>
3

> <JCHEM_ACIDIC_PKA>
1.88

> <JCHEM_BASIC_PKA>
9.32

> <JCHEM_PHYSIOLOGICAL_CHARGE>
0

> <ALOGPS_LOGP>
-1

> <JCHEM_LOGP>
-0.83

> <ALOGPS_LOGS>
-3.3

> <JCHEM_POLARIZABILITY>
34.94

> <JCHEM_POLAR_SURFACE_AREA>
112.98

> <JCHEM_REFRACTIVITY>
89.25

> <JCHEM_ROTATABLE_BOND_COUNT>
5

> <ALOGPS_SOLUBILITY>
1.66e-01 g/l __ 

$$$$
