
  Mrv0541 02231215422D          

 49 53  0  0  1  0            999 V2000
  -12.3579    3.3008    0.0000 N   0  0  0  0  0  0  0  0  0  0  0  0
  -11.5374    3.2145    0.0000 C   0  0  0  0  0  0  0  0  0  0  0  0
  -11.0525    3.8820    0.0000 O   0  0  0  0  0  0  0  0  0  0  0  0
  -11.2018    2.4608    0.0000 C   0  0  1  0  0  0  0  0  0  0  0  0
  -10.3814    2.3746    0.0000 C   0  0  0  0  0  0  0  0  0  0  0  0
  -10.0458    1.6209    0.0000 N   0  3  0  0  0  0  0  0  0  0  0  0
  -10.5307    0.9535    0.0000 C   0  0  0  0  0  0  0  0  0  0  0  0
  -11.3512    1.0397    0.0000 C   0  0  0  0  0  0  0  0  0  0  0  0
  -11.6868    1.7934    0.0000 C   0  0  0  0  0  0  0  0  0  0  0  0
  -12.5073    1.8796    0.0000 O   0  0  0  0  0  0  0  0  0  0  0  0
   -9.2253    1.5347    0.0000 C   0  0  2  0  0  0  0  0  0  0  0  0
   -8.6733    2.1478    0.0000 O   0  0  0  0  0  0  0  0  0  0  0  0
   -7.9196    1.8122    0.0000 C   0  0  1  0  0  0  0  0  0  0  0  0
   -7.2052    2.2247    0.0000 C   0  0  0  0  0  0  0  0  0  0  0  0
   -6.4907    1.8122    0.0000 O   0  0  0  0  0  0  0  0  0  0  0  0
   -5.7762    2.2247    0.0000 P   0  0  2  0  0  0  0  0  0  0  0  0
   -5.3637    1.5103    0.0000 O   0  0  0  0  0  0  0  0  0  0  0  0
   -6.1887    2.9392    0.0000 O   0  5  0  0  0  0  0  0  0  0  0  0
   -5.0617    2.6372    0.0000 O   0  0  0  0  0  0  0  0  0  0  0  0
   -4.3473    2.2247    0.0000 P   0  0  1  0  0  0  0  0  0  0  0  0
   -4.7598    1.5103    0.0000 O   0  0  0  0  0  0  0  0  0  0  0  0
   -3.9348    2.9392    0.0000 O   0  0  0  0  0  0  0  0  0  0  0  0
   -3.6328    1.8122    0.0000 O   0  0  0  0  0  0  0  0  0  0  0  0
   -2.9183    2.2247    0.0000 C   0  0  0  0  0  0  0  0  0  0  0  0
   -2.2039    1.8122    0.0000 C   0  0  2  0  0  0  0  0  0  0  0  0
   -1.4502    2.1478    0.0000 O   0  0  0  0  0  0  0  0  0  0  0  0
   -0.8981    1.5347    0.0000 C   0  0  2  0  0  0  0  0  0  0  0  0
   -1.3106    0.8202    0.0000 C   0  0  2  0  0  0  0  0  0  0  0  0
   -0.9751    0.0665    0.0000 O   0  0  0  0  0  0  0  0  0  0  0  0
   -1.4600   -0.6009    0.0000 P   0  0  0  0  0  0  0  0  0  0  0  0
   -2.1275   -0.1160    0.0000 O   0  0  0  0  0  0  0  0  0  0  0  0
   -0.7926   -1.0858    0.0000 O   0  0  0  0  0  0  0  0  0  0  0  0
   -1.9449   -1.2683    0.0000 O   0  0  0  0  0  0  0  0  0  0  0  0
   -2.1176    0.9917    0.0000 C   0  0  1  0  0  0  0  0  0  0  0  0
   -2.7307    0.4397    0.0000 O   0  0  0  0  0  0  0  0  0  0  0  0
   -0.0777    1.6209    0.0000 N   0  0  0  0  0  0  0  0  0  0  0  0
    0.4744    1.0078    0.0000 C   0  0  0  0  0  0  0  0  0  0  0  0
    1.2280    1.3434    0.0000 N   0  0  0  0  0  0  0  0  0  0  0  0
    1.1418    2.1639    0.0000 C   0  0  0  0  0  0  0  0  0  0  0  0
    0.3348    2.3354    0.0000 C   0  0  0  0  0  0  0  0  0  0  0  0
    0.0799    3.1200    0.0000 N   0  0  0  0  0  0  0  0  0  0  0  0
    0.6319    3.7331    0.0000 C   0  0  0  0  0  0  0  0  0  0  0  0
    1.4389    3.5616    0.0000 N   0  0  0  0  0  0  0  0  0  0  0  0
    1.6938    2.7770    0.0000 C   0  0  0  0  0  0  0  0  0  0  0  0
    2.5008    2.6054    0.0000 N   0  0  0  0  0  0  0  0  0  0  0  0
   -8.0059    0.9917    0.0000 C   0  0  2  0  0  0  0  0  0  0  0  0
   -7.3928    0.4397    0.0000 O   0  0  0  0  0  0  0  0  0  0  0  0
   -8.8128    0.8202    0.0000 C   0  0  1  0  0  0  0  0  0  0  0  0
   -9.1484    0.0665    0.0000 O   0  0  0  0  0  0  0  0  0  0  0  0
  1  2  1  0  0  0  0
  2  3  2  0  0  0  0
  4  2  1  1  0  0  0
  4  5  1  0  0  0  0
  5  6  2  0  0  0  0
  6  7  1  0  0  0  0
  7  8  2  0  0  0  0
  8  9  1  0  0  0  0
  4  9  1  0  0  0  0
  9 10  2  0  0  0  0
 11  6  1  6  0  0  0
 11 12  1  0  0  0  0
 12 13  1  0  0  0  0
 13 14  1  1  0  0  0
 14 15  1  0  0  0  0
 16 15  1  6  0  0  0
 16 17  1  1  0  0  0
 16 18  2  0  0  0  0
 16 19  1  0  0  0  0
 20 19  1  1  0  0  0
 20 21  1  6  0  0  0
 20 22  2  0  0  0  0
 20 23  1  0  0  0  0
 23 24  1  0  0  0  0
 25 24  1  6  0  0  0
 25 26  1  0  0  0  0
 26 27  1  0  0  0  0
 27 28  1  0  0  0  0
 28 29  1  6  0  0  0
 29 30  1  0  0  0  0
 30 31  1  0  0  0  0
 30 32  1  0  0  0  0
 30 33  2  0  0  0  0
 28 34  1  0  0  0  0
 25 34  1  0  0  0  0
 34 35  1  1  0  0  0
 27 36  1  1  0  0  0
 36 37  1  0  0  0  0
 37 38  2  0  0  0  0
 38 39  1  0  0  0  0
 39 40  2  0  0  0  0
 36 40  1  0  0  0  0
 40 41  1  0  0  0  0
 41 42  2  0  0  0  0
 42 43  1  0  0  0  0
 43 44  2  0  0  0  0
 39 44  1  0  0  0  0
 44 45  1  0  0  0  0
 13 46  1  0  0  0  0
 46 47  1  6  0  0  0
 46 48  1  0  0  0  0
 11 48  1  0  0  0  0
 48 49  1  1  0  0  0
M  END
> <DRUGBANK_ID>
DB01753

> <DRUG_GROUPS>
experimental

> <GENERIC_NAME>
4-Oxo-Nicotinamide-Adenine Dinucleotide Phosphate

> <CHEMICAL_FORMULA>
C21H29N7O18P3

> <MOLECULAR_WEIGHT>
760.4123

> <EXACT_MASS>
760.078191695

> <IUPAC_NAME>
(3S)-1-[(2R,3R,4R,5S)-5-({[(R)-[({[(2S,3S,4R,5R)-5-(6-amino-9H-purin-9-yl)-3-hydroxy-4-(phosphonooxy)oxolan-2-yl]methoxy}(hydroxy)phosphoryl)oxy](hydroxy)$l^{3}-oxidanidylidene-$l^{5}-phosphanyl]oxy}methyl)-3,4-dihydroxyoxolan-2-yl]-3-carbamoyl-4-oxo-3,4-dihydro-1$l^{5}-pyridin-1-ylium

> <IUPAC_TRADITIONAL_NAME>
(3S)-1-[(2R,3R,4R,5S)-5-({[(R)-({[(2S,3S,4R,5R)-5-(6-aminopurin-9-yl)-3-hydroxy-4-(phosphonooxy)oxolan-2-yl]methoxy(hydroxy)phosphoryl}oxy)(hydroxy)$l^{3}-oxidanidylidene-$l^{5}-phosphanyl]oxy}methyl)-3,4-dihydroxyoxolan-2-yl]-3-carbamoyl-4-oxo-3H-1$l^{5}-pyridin-1-ylium

> <INCHI_IDENTIFIER>
InChI=1S/C21H28N7O18P3/c22-17-12-19(25-6-24-17)28(7-26-12)21-16(45-47(34,35)36)14(31)11(44-21)5-42-49(39,40)46-48(37,38)41-4-10-13(30)15(32)20(43-10)27-2-1-9(29)8(3-27)18(23)33/h1-3,6-8,10-11,13-16,20-21,30-32H,4-5H2,(H7-,22,23,24,25,33,34,35,36,37,39,40)/q-1/p+1/t8-,10-,11-,13-,14-,15+,16+,20+,21+/m0/s1

> <INCHI_KEY>
InChIKey=RMBRWQPNYCYGNP-KOGMLKCQSA-O

> <SMILES>
NC(=O)[C@H]1C=[N+](C=CC1=O)[C@@H]1O[C@@H](CO[P@](O)(=[O-])O[P@@](O)(=O)OC[C@@H]2O[C@H]([C@H](OP(O)(O)=O)[C@H]2O)N2C=NC3=C2N=CN=C3N)[C@H](O)[C@H]1O

> <JCHEM_ACCEPTOR_COUNT>
0

> <JCHEM_DONOR_COUNT>
0

> <JCHEM_PHYSIOLOGICAL_CHARGE>
0

> <ALOGPS_LOGP>
-0.06

> <ALOGPS_LOGS>
-2.1

> <JCHEM_POLARIZABILITY>
62.78

> <JCHEM_POLAR_SURFACE_AREA>
380.99

> <JCHEM_REFRACTIVITY>
164.89

> <JCHEM_ROTATABLE_BOND_COUNT>
13

> <ALOGPS_SOLUBILITY>
6.74e+00 g/l __ 

$$$$
