[NO NAME]
  Mrv0541 05011212562D          
Created with ChemWriter - http://chemwriter.com
 25 27  0  0  1  0            999 V2000
    8.4251   -0.5284    0.0000 O   0  0  0  0  0  0  0  0  0  0  0  0
    4.8488    1.2717    0.0000 O   0  0  0  0  0  0  0  0  0  0  0  0
    6.9331    2.4782    0.0000 O   0  0  0  0  0  0  0  0  0  0  0  0
    6.0805    0.4689    0.0000 N   0  0  0  0  0  0  0  0  0  0  0  0
    5.5354   -0.7497    0.0000 N   0  0  0  0  0  0  0  0  0  0  0  0
    7.0886   -1.4959    0.0000 N   0  0  0  0  0  0  0  0  0  0  0  0
    3.8597   -2.4788    0.0000 N   0  0  0  0  0  0  0  0  0  0  0  0
    7.0037   -0.6753    0.0000 C   0  0  1  0  0  0  0  0  0  0  0  0
    6.2506   -0.3384    0.0000 C   0  0  0  0  0  0  0  0  0  0  0  0
    7.6720   -0.1916    0.0000 C   0  0  1  0  0  0  0  0  0  0  0  0
    6.6336    1.0810    0.0000 C   0  0  0  0  0  0  0  0  0  0  0  0
    4.9232   -0.1966    0.0000 C   0  0  0  0  0  0  0  0  0  0  0  0
    5.2602    0.5565    0.0000 C   0  0  0  0  0  0  0  0  0  0  0  0
    3.8597   -1.1509    0.0000 C   0  0  0  0  0  0  0  0  0  0  0  0
    4.1159   -0.3667    0.0000 C   0  0  0  0  0  0  0  0  0  0  0  0
    7.5872    0.6291    0.0000 C   0  0  0  0  0  0  0  0  0  0  0  0
    3.0790   -1.4024    0.0000 C   0  0  0  0  0  0  0  0  0  0  0  0
    6.3799    1.8661    0.0000 C   0  0  0  0  0  0  0  0  0  0  0  0
    3.0790   -2.2274    0.0000 C   0  0  0  0  0  0  0  0  0  0  0  0
    4.3412   -1.8149    0.0000 C   0  0  0  0  0  0  0  0  0  0  0  0
    2.3645   -0.9899    0.0000 C   0  0  0  0  0  0  0  0  0  0  0  0
    2.3645   -2.6399    0.0000 C   0  0  0  0  0  0  0  0  0  0  0  0
    1.6500   -1.4024    0.0000 C   0  0  0  0  0  0  0  0  0  0  0  0
    1.6500   -2.2274    0.0000 C   0  0  0  0  0  0  0  0  0  0  0  0
    3.5681    0.2437    0.0000 H   0  0  0  0  0  0  0  0  0  0  0  0
 10  1  1  1  0  0  0
  2 13  2  0  0  0  0
  3 18  1  0  0  0  0
  4  9  1  0  0  0  0
  4 11  1  0  0  0  0
  4 13  1  0  0  0  0
  5  9  2  0  0  0  0
  5 12  1  0  0  0  0
  8  6  1  1  0  0  0
  7 19  1  0  0  0  0
  7 20  1  0  0  0  0
  8  9  1  0  0  0  0
  8 10  1  0  0  0  0
 10 16  1  0  0  0  0
 11 18  1  0  0  0  0
 12 13  1  0  0  0  0
 12 15  2  0  0  0  0
 14 15  1  0  0  0  0
 14 17  1  0  0  0  0
 14 20  2  0  0  0  0
 17 19  1  0  0  0  0
 17 21  2  0  0  0  0
 19 22  2  0  0  0  0
 21 23  1  0  0  0  0
 22 24  1  0  0  0  0
 23 24  2  0  0  0  0
 15 25  1  0  0  0  0
M  END
> <DRUGBANK_ID>
DB01653

> <DRUG_GROUPS>
experimental

> <GENERIC_NAME>
(5z)-5-(1h-Indol-3-Ylmethylene)-4h-Imidazol-4-One

> <CHEMICAL_FORMULA>
C17H20N4O3

> <MOLECULAR_WEIGHT>
328.3657

> <EXACT_MASS>
328.153540526

> <IUPAC_NAME>
(4Z)-2-[(1S,2R)-1-amino-2-hydroxypropyl]-1-(2-hydroxyethyl)-4-(1H-indol-3-ylmethylidene)-4,5-dihydro-1H-imidazol-5-one

> <IUPAC_TRADITIONAL_NAME>
(5Z)-2-[(1S,2R)-1-amino-2-hydroxypropyl]-3-(2-hydroxyethyl)-5-(1H-indol-3-ylmethylidene)imidazol-4-one

> <INCHI_IDENTIFIER>
InChI=1S/C17H20N4O3/c1-10(23)15(18)16-20-14(17(24)21(16)6-7-22)8-11-9-19-13-5-3-2-4-12(11)13/h2-5,8-10,15,19,22-23H,6-7,18H2,1H3/b14-8-/t10-,15-/m1/s1

> <INCHI_KEY>
InChIKey=VFTCTFWPSJPJLY-RKHBVOJPSA-N

> <SMILES>
[H]\C(C1=CNC2=CC=CC=C12)=C1\N=C([C@H](N)[C@@H](C)O)N(CCO)C1=O

> <JCHEM_ACCEPTOR_COUNT>
5

> <JCHEM_DONOR_COUNT>
4

> <JCHEM_ACIDIC_PKA>
14.65

> <JCHEM_BASIC_PKA>
7.56

> <JCHEM_PHYSIOLOGICAL_CHARGE>
1

> <ALOGPS_LOGP>
0.21

> <JCHEM_LOGP>
-0.33

> <ALOGPS_LOGS>
-3.2

> <JCHEM_POLARIZABILITY>
35.67

> <JCHEM_POLAR_SURFACE_AREA>
114.94

> <JCHEM_REFRACTIVITY>
91.2

> <JCHEM_ROTATABLE_BOND_COUNT>
5

> <ALOGPS_SOLUBILITY>
1.91e-01 g/l __ 

$$$$
