1551
  Mrv0541 02231215332D          

 25 29  0  0  1  0            999 V2000
    1.9356   -0.1190    0.0000 O   0  0  0  0  0  0  0  0  0  0  0  0
    1.7349   -2.2486    0.0000 O   0  0  0  0  0  0  0  0  0  0  0  0
    1.7349    1.9190    0.0000 O   0  0  0  0  0  0  0  0  0  0  0  0
    5.3440   -0.9899    0.0000 N   0  0  0  0  0  0  0  0  0  0  0  0
    3.2006   -0.5773    0.0000 C   0  0  1  0  0  0  0  0  0  0  0  0
    3.9151   -0.9899    0.0000 C   0  0  2  0  0  0  0  0  0  0  0  0
    2.4861   -0.9899    0.0000 C   0  0  2  0  0  0  0  0  0  0  0  0
    4.6296   -0.5773    0.0000 C   0  0  1  0  0  0  0  0  0  0  0  0
    3.6773    0.0277    0.0000 C   0  0  0  0  0  0  0  0  0  0  0  0
    3.2006    0.2477    0.0000 C   0  0  0  0  0  0  0  0  0  0  0  0
    3.9151   -1.8149    0.0000 C   0  0  0  0  0  0  0  0  0  0  0  0
    2.4861   -1.8149    0.0000 C   0  0  2  0  0  0  0  0  0  0  0  0
    4.6296    0.2477    0.0000 C   0  0  0  0  0  0  0  0  0  0  0  0
    3.2006   -2.2274    0.0000 C   0  0  0  0  0  0  0  0  0  0  0  0
    4.8506    0.0277    0.0000 C   0  0  0  0  0  0  0  0  0  0  0  0
    3.9151    0.6602    0.0000 C   0  0  0  0  0  0  0  0  0  0  0  0
    2.4861    0.6602    0.0000 C   0  0  0  0  0  0  0  0  0  0  0  0
    5.9350   -1.6249    0.0000 C   0  0  0  0  0  0  0  0  0  0  0  0
    3.9151    1.4852    0.0000 C   0  0  0  0  0  0  0  0  0  0  0  0
    2.4861    1.4852    0.0000 C   0  0  0  0  0  0  0  0  0  0  0  0
    3.2006    1.8977    0.0000 C   0  0  0  0  0  0  0  0  0  0  0  0
    1.7349    2.7864    0.0000 C   0  0  0  0  0  0  0  0  0  0  0  0
    4.3612   -1.5214    0.0000 H   0  0  0  0  0  0  0  0  0  0  0  0
    1.8196   -1.1829    0.0000 H   0  0  0  0  0  0  0  0  0  0  0  0
    4.8675   -1.2293    0.0000 H   0  0  0  0  0  0  0  0  0  0  0  0
  1  7  1  0  0  0  0
  1 17  1  0  0  0  0
 12  2  1  6  0  0  0
  3 20  1  0  0  0  0
  3 22  1  0  0  0  0
  4  8  1  0  0  0  0
  4 15  1  0  0  0  0
  4 18  1  0  0  0  0
  5  6  1  0  0  0  0
  5  7  1  0  0  0  0
  5  9  1  1  0  0  0
  5 10  1  0  0  0  0
  6  8  1  0  0  0  0
  6 11  1  0  0  0  0
  6 23  1  1  0  0  0
  7 12  1  0  0  0  0
  7 24  1  1  0  0  0
  8 13  1  0  0  0  0
  8 25  1  6  0  0  0
  9 15  1  0  0  0  0
 10 16  2  0  0  0  0
 10 17  1  0  0  0  0
 11 14  1  0  0  0  0
 12 14  1  0  0  0  0
 13 16  1  0  0  0  0
 16 19  1  0  0  0  0
 17 20  2  0  0  0  0
 19 21  2  0  0  0  0
 20 21  1  0  0  0  0
M  END
> <DRUGBANK_ID>
DB01551

> <DRUG_GROUPS>
approved; experimental; illicit

> <GENERIC_NAME>
Dihydrocodeine

> <SYNONYMS>
DHC

> <SALTS>
Dihydrocodeine bitartrate; Dihydrocodeine hydrobromide; Dihydrocodeine hydrochloride; Dihydrocodeine hydroiodide; Dihydrocodeine methyliodide; Dihydrocodeine phosphate; Dihydrocodeine sulfate; Dihydrocodeine tartrate

> <BRANDS>
Codidol; Contugesic; Dehace; DF-118 Forte; Dicogesic; Hydrocodin; Remedacen

> <CHEMICAL_FORMULA>
C18H23NO3

> <MOLECULAR_WEIGHT>
301.3801

> <EXACT_MASS>
301.167793607

> <IUPAC_NAME>
(1S,5R,13R,14S,17R)-10-methoxy-4-methyl-12-oxa-4-azapentacyclo[9.6.1.0^{1,13}.0^{5,17}.0^{7,18}]octadeca-7(18),8,10-trien-14-ol

> <IUPAC_TRADITIONAL_NAME>
dihydrocodeine

> <INCHI_IDENTIFIER>
InChI=1S/C18H23NO3/c1-19-8-7-18-11-4-5-13(20)17(18)22-16-14(21-2)6-3-10(15(16)18)9-12(11)19/h3,6,11-13,17,20H,4-5,7-9H2,1-2H3/t11-,12+,13-,17-,18-/m0/s1

> <INCHI_KEY>
InChIKey=RBOXVHNMENFORY-DNJOTXNNSA-N

> <SMILES>
[H][C@@]12OC3=C(OC)C=CC4=C3[C@@]11CCN(C)[C@]([H])(C4)[C@]1([H])CC[C@@H]2O

> <JCHEM_ACCEPTOR_COUNT>
4

> <JCHEM_DONOR_COUNT>
1

> <JCHEM_ACIDIC_PKA>
14.15

> <JCHEM_BASIC_PKA>
9.33

> <JCHEM_PHYSIOLOGICAL_CHARGE>
1

> <ALOGPS_LOGP>
1.58

> <JCHEM_LOGP>
1.55

> <ALOGPS_LOGS>
-2.1

> <JCHEM_POLARIZABILITY>
32.82

> <JCHEM_POLAR_SURFACE_AREA>
41.93

> <JCHEM_REFRACTIVITY>
83.64

> <JCHEM_ROTATABLE_BOND_COUNT>
1

> <ALOGPS_SOLUBILITY>
2.38e+00 g/l __ 

$$$$
