1012
  Mrv0541 02231215102D          

 26 28  0  0  1  0            999 V2000
    3.3001   -3.3143    0.0000 F   0  0  0  0  0  0  0  0  0  0  0  0
    1.6500   -3.3143    0.0000 F   0  0  0  0  0  0  0  0  0  0  0  0
    2.4751   -4.1394    0.0000 F   0  0  0  0  0  0  0  0  0  0  0  0
    4.6185    1.2233    0.0000 N   0  0  0  0  0  0  0  0  0  0  0  0
    5.3330    1.6358    0.0000 C   0  0  1  0  0  0  0  0  0  0  0  0
    4.6185    0.3982    0.0000 C   0  0  0  0  0  0  0  0  0  0  0  0
    5.3330    2.4608    0.0000 C   0  0  0  0  0  0  0  0  0  0  0  0
    3.9041   -0.0143    0.0000 C   0  0  0  0  0  0  0  0  0  0  0  0
    3.9041   -0.8393    0.0000 C   0  0  0  0  0  0  0  0  0  0  0  0
    6.0475    2.8733    0.0000 C   0  0  0  0  0  0  0  0  0  0  0  0
    6.0475    1.2233    0.0000 C   0  0  0  0  0  0  0  0  0  0  0  0
    6.0475    3.6983    0.0000 C   0  0  0  0  0  0  0  0  0  0  0  0
    3.1895   -1.2518    0.0000 C   0  0  0  0  0  0  0  0  0  0  0  0
    4.6185    2.8733    0.0000 C   0  0  0  0  0  0  0  0  0  0  0  0
    6.7850    2.4322    0.0000 C   0  0  0  0  0  0  0  0  0  0  0  0
    5.3330    4.1108    0.0000 C   0  0  0  0  0  0  0  0  0  0  0  0
    4.6185    3.6983    0.0000 C   0  0  0  0  0  0  0  0  0  0  0  0
    3.1895   -2.0768    0.0000 C   0  0  0  0  0  0  0  0  0  0  0  0
    6.7850    4.1394    0.0000 C   0  0  0  0  0  0  0  0  0  0  0  0
    2.4751   -0.8393    0.0000 C   0  0  0  0  0  0  0  0  0  0  0  0
    2.4751   -2.4893    0.0000 C   0  0  0  0  0  0  0  0  0  0  0  0
    7.5325    2.8561    0.0000 C   0  0  0  0  0  0  0  0  0  0  0  0
    7.5325    3.7155    0.0000 C   0  0  0  0  0  0  0  0  0  0  0  0
    1.7606   -1.2518    0.0000 C   0  0  0  0  0  0  0  0  0  0  0  0
    1.7606   -2.0768    0.0000 C   0  0  0  0  0  0  0  0  0  0  0  0
    2.4751   -3.3143    0.0000 C   0  0  0  0  0  0  0  0  0  0  0  0
  1 26  1  0  0  0  0
  2 26  1  0  0  0  0
  3 26  1  0  0  0  0
  5  4  1  1  0  0  0
  4  6  1  0  0  0  0
  5  7  1  0  0  0  0
  5 11  1  0  0  0  0
  6  8  1  0  0  0  0
  7 10  1  0  0  0  0
  7 14  2  0  0  0  0
  8  9  1  0  0  0  0
  9 13  1  0  0  0  0
 10 12  1  0  0  0  0
 10 15  2  0  0  0  0
 12 16  1  0  0  0  0
 12 19  2  0  0  0  0
 13 18  2  0  0  0  0
 13 20  1  0  0  0  0
 14 17  1  0  0  0  0
 15 22  1  0  0  0  0
 16 17  2  0  0  0  0
 18 21  1  0  0  0  0
 19 23  1  0  0  0  0
 20 24  2  0  0  0  0
 21 25  2  0  0  0  0
 21 26  1  0  0  0  0
 22 23  2  0  0  0  0
 24 25  1  0  0  0  0
M  END
> <DRUGBANK_ID>
DB01012

> <DRUG_GROUPS>
approved

> <GENERIC_NAME>
Cinacalcet

> <BRANDS>


> <CHEMICAL_FORMULA>
C22H22F3N

> <MOLECULAR_WEIGHT>
357.412

> <EXACT_MASS>
357.170434324

> <IUPAC_NAME>
[(1R)-1-(naphthalen-1-yl)ethyl]({3-[3-(trifluoromethyl)phenyl]propyl})amine

> <IUPAC_TRADITIONAL_NAME>
cinacalcet

> <INCHI_IDENTIFIER>
InChI=1S/C22H22F3N/c1-16(20-13-5-10-18-9-2-3-12-21(18)20)26-14-6-8-17-7-4-11-19(15-17)22(23,24)25/h2-5,7,9-13,15-16,26H,6,8,14H2,1H3/t16-/m1/s1

> <INCHI_KEY>
InChIKey=VDHAWDNDOKGFTD-MRXNPFEDSA-N

> <SMILES>
C[C@@H](NCCCC1=CC(=CC=C1)C(F)(F)F)C1=CC=CC2=CC=CC=C12

> <JCHEM_ACCEPTOR_COUNT>
1

> <JCHEM_DONOR_COUNT>
1

> <JCHEM_BASIC_PKA>
10.3

> <JCHEM_PHYSIOLOGICAL_CHARGE>
1

> <ALOGPS_LOGP>
5.57

> <JCHEM_LOGP>
6.27

> <ALOGPS_LOGS>
-6.8

> <JCHEM_POLARIZABILITY>
37.9

> <JCHEM_POLAR_SURFACE_AREA>
12.03

> <JCHEM_REFRACTIVITY>
100.12

> <JCHEM_ROTATABLE_BOND_COUNT>
7

> <ALOGPS_SOLUBILITY>
5.59e-05 g/l __ 

$$$$
