
  Mrv0541 02231215422D          

 11 11  0  0  0  0            999 V2000
    2.1434    2.0625    0.0000 C   0  0  0  0  0  0  0  0  0  0  0  0
    2.1434    1.2375    0.0000 O   0  0  0  0  0  0  0  0  0  0  0  0
    1.4289    0.8250    0.0000 C   0  0  0  0  0  0  0  0  0  0  0  0
    1.4289    0.0000    0.0000 N   0  0  0  0  0  0  0  0  0  0  0  0
    0.7145   -0.4125    0.0000 C   0  0  0  0  0  0  0  0  0  0  0  0
    0.0000    0.0000    0.0000 C   0  0  0  0  0  0  0  0  0  0  0  0
    0.0000    0.8250    0.0000 N   0  0  0  0  0  0  0  0  0  0  0  0
    0.7145    1.2375    0.0000 C   0  0  0  0  0  0  0  0  0  0  0  0
    0.7145    2.0625    0.0000 C   0  0  0  0  0  0  0  0  0  0  0  0
    1.4289    2.4750    0.0000 C   0  0  0  0  0  0  0  0  0  0  0  0
    0.0000    2.4750    0.0000 C   0  0  0  0  0  0  0  0  0  0  0  0
  1  2  1  0  0  0  0
  2  3  1  0  0  0  0
  3  4  2  0  0  0  0
  4  5  1  0  0  0  0
  5  6  2  0  0  0  0
  6  7  1  0  0  0  0
  7  8  2  0  0  0  0
  3  8  1  0  0  0  0
  8  9  1  0  0  0  0
  9 10  1  0  0  0  0
  9 11  1  0  0  0  0
M  END
> <DRUGBANK_ID>
DB01760

> <DRUG_GROUPS>
experimental

> <GENERIC_NAME>
2-Methoxy-3-Isopropylpyrazine

> <CHEMICAL_FORMULA>
C8H12N2O

> <MOLECULAR_WEIGHT>
152.1937

> <EXACT_MASS>
152.094963016

> <IUPAC_NAME>
2-methoxy-3-(propan-2-yl)pyrazine

> <IUPAC_TRADITIONAL_NAME>
2-isopropyl-3-methoxypyrazine

> <INCHI_IDENTIFIER>
InChI=1S/C8H12N2O/c1-6(2)7-8(11-3)10-5-4-9-7/h4-6H,1-3H3

> <INCHI_KEY>
InChIKey=NTOPKICPEQUPPH-UHFFFAOYSA-N

> <SMILES>
COC1=NC=CN=C1C(C)C

> <JCHEM_ACCEPTOR_COUNT>
3

> <JCHEM_DONOR_COUNT>
0

> <JCHEM_BASIC_PKA>
0.88

> <JCHEM_PHYSIOLOGICAL_CHARGE>
0

> <ALOGPS_LOGP>
2.08

> <JCHEM_LOGP>
1.35

> <ALOGPS_LOGS>
-0.39

> <JCHEM_POLARIZABILITY>
16.41

> <JCHEM_POLAR_SURFACE_AREA>
35.01

> <JCHEM_REFRACTIVITY>
42.31

> <JCHEM_ROTATABLE_BOND_COUNT>
2

> <ALOGPS_SOLUBILITY>
6.14e+01 g/l __ 

$$$$
