1288
  Mrv0541 02231215222D          

 22 23  0  0  1  0            999 V2000
    2.3645   -0.4125    0.0000 O   0  0  0  0  0  0  0  0  0  0  0  0
    1.6500   -3.3001    0.0000 O   0  0  0  0  0  0  0  0  0  0  0  0
    4.5080   -3.3001    0.0000 O   0  0  0  0  0  0  0  0  0  0  0  0
    7.3659    3.3001    0.0000 O   0  0  0  0  0  0  0  0  0  0  0  0
    3.7935    0.4125    0.0000 N   0  0  0  0  0  0  0  0  0  0  0  0
    4.5080    0.8250    0.0000 C   0  0  0  0  0  0  0  0  0  0  0  0
    4.5080    1.6500    0.0000 C   0  0  0  0  0  0  0  0  0  0  0  0
    3.7935   -0.4125    0.0000 C   0  0  0  0  0  0  0  0  0  0  0  0
    3.0791   -0.8250    0.0000 C   0  0  0  0  0  0  0  0  0  0  0  0
    5.2224    0.4125    0.0000 C   0  0  0  0  0  0  0  0  0  0  0  0
    5.2224    2.0625    0.0000 C   0  0  0  0  0  0  0  0  0  0  0  0
    3.0791   -1.6500    0.0000 C   0  0  0  0  0  0  0  0  0  0  0  0
    5.9370    1.6500    0.0000 C   0  0  0  0  0  0  0  0  0  0  0  0
    5.2224    2.8876    0.0000 C   0  0  0  0  0  0  0  0  0  0  0  0
    3.7935   -2.0625    0.0000 C   0  0  0  0  0  0  0  0  0  0  0  0
    2.3645   -2.0625    0.0000 C   0  0  0  0  0  0  0  0  0  0  0  0
    2.3645   -2.8876    0.0000 C   0  0  0  0  0  0  0  0  0  0  0  0
    3.7935   -2.8876    0.0000 C   0  0  0  0  0  0  0  0  0  0  0  0
    6.6515    2.0625    0.0000 C   0  0  0  0  0  0  0  0  0  0  0  0
    5.9370    3.3001    0.0000 C   0  0  0  0  0  0  0  0  0  0  0  0
    6.6515    2.8876    0.0000 C   0  0  0  0  0  0  0  0  0  0  0  0
    3.0791   -3.3001    0.0000 C   0  0  0  0  0  0  0  0  0  0  0  0
  1  9  1  0  0  0  0
  2 17  1  0  0  0  0
  3 18  1  0  0  0  0
  4 21  1  0  0  0  0
  5  6  1  0  0  0  0
  5  8  1  0  0  0  0
  6  7  1  0  0  0  0
  6 10  1  0  0  0  0
  7 11  1  0  0  0  0
  8  9  1  0  0  0  0
  9 12  1  0  0  0  0
 11 13  2  0  0  0  0
 11 14  1  0  0  0  0
 12 15  2  0  0  0  0
 12 16  1  0  0  0  0
 13 19  1  0  0  0  0
 14 20  2  0  0  0  0
 15 18  1  0  0  0  0
 16 17  2  0  0  0  0
 17 22  1  0  0  0  0
 18 22  2  0  0  0  0
 19 21  2  0  0  0  0
 20 21  1  0  0  0  0
M  END
> <DRUGBANK_ID>
DB01288

> <DRUG_GROUPS>
approved

> <GENERIC_NAME>
Fenoterol

> <SYNONYMS>
Fenoterolum; Phenoterol

> <BRANDS>


> <CHEMICAL_FORMULA>
C17H21NO4

> <MOLECULAR_WEIGHT>
303.3529

> <EXACT_MASS>
303.147058165

> <IUPAC_NAME>
5-(1-hydroxy-2-{[1-(4-hydroxyphenyl)propan-2-yl]amino}ethyl)benzene-1,3-diol

> <IUPAC_TRADITIONAL_NAME>
fenoterol

> <INCHI_IDENTIFIER>
InChI=1S/C17H21NO4/c1-11(6-12-2-4-14(19)5-3-12)18-10-17(22)13-7-15(20)9-16(21)8-13/h2-5,7-9,11,17-22H,6,10H2,1H3

> <INCHI_KEY>
InChIKey=LSLYOANBFKQKPT-UHFFFAOYSA-N

> <SMILES>
CC(CC1=CC=C(O)C=C1)NCC(O)C1=CC(O)=CC(O)=C1

> <JCHEM_ACCEPTOR_COUNT>
5

> <JCHEM_DONOR_COUNT>
5

> <JCHEM_ACIDIC_PKA>
8.85

> <JCHEM_BASIC_PKA>
9.63

> <JCHEM_PHYSIOLOGICAL_CHARGE>
1

> <ALOGPS_LOGP>
1.36

> <JCHEM_LOGP>
1.47

> <ALOGPS_LOGS>
-3.3

> <JCHEM_POLARIZABILITY>
31.75

> <JCHEM_POLAR_SURFACE_AREA>
92.95

> <JCHEM_REFRACTIVITY>
85

> <JCHEM_ROTATABLE_BOND_COUNT>
6

> <ALOGPS_SOLUBILITY>
1.62e-01 g/l __ 

$$$$
