1033
  Mrv0541 02231215112D          

 10 11  0  0  0  0            999 V2000
    2.3644    1.4933    0.0000 S   0  0  0  0  0  0  0  0  0  0  0  0
    3.8596    0.5071    0.0000 N   0  0  0  0  0  0  0  0  0  0  0  0
    2.3644   -0.9818    0.0000 N   0  0  0  0  0  0  0  0  0  0  0  0
    3.8596   -0.8206    0.0000 N   0  0  0  0  0  0  0  0  0  0  0  0
    1.6500    0.2558    0.0000 N   0  0  0  0  0  0  0  0  0  0  0  0
    3.0790    0.2558    0.0000 C   0  0  0  0  0  0  0  0  0  0  0  0
    3.0790   -0.5692    0.0000 C   0  0  0  0  0  0  0  0  0  0  0  0
    2.3644    0.6683    0.0000 C   0  0  0  0  0  0  0  0  0  0  0  0
    4.3411   -0.1568    0.0000 C   0  0  0  0  0  0  0  0  0  0  0  0
    1.6500   -0.5692    0.0000 C   0  0  0  0  0  0  0  0  0  0  0  0
  1  8  2  0  0  0  0
  2  6  1  0  0  0  0
  2  9  1  0  0  0  0
  3  7  1  0  0  0  0
  3 10  1  0  0  0  0
  4  7  1  0  0  0  0
  4  9  2  0  0  0  0
  5  8  1  0  0  0  0
  5 10  2  0  0  0  0
  6  7  2  0  0  0  0
  6  8  1  0  0  0  0
M  END
> <DRUGBANK_ID>
DB01033

> <DRUG_GROUPS>
approved

> <GENERIC_NAME>
Mercaptopurine

> <SYNONYMS>
6 MP; 6-Mercaptopurine; 6-MP; 6-Thioxopurine; Mercapurin

> <SALTS>
Mercaptopurine monohydrate

> <BRANDS>
Leukerin; Purinethol

> <CHEMICAL_FORMULA>
C5H4N4S

> <MOLECULAR_WEIGHT>
152.177

> <EXACT_MASS>
152.015666838

> <IUPAC_NAME>
6,7-dihydro-3H-purine-6-thione

> <IUPAC_TRADITIONAL_NAME>
mercaptopurine

> <INCHI_IDENTIFIER>
InChI=1S/C5H4N4S/c10-5-3-4(7-1-6-3)8-2-9-5/h1-2H,(H2,6,7,8,9,10)

> <INCHI_KEY>
InChIKey=GLVAUDGFNGKCSF-UHFFFAOYSA-N

> <SMILES>
S=C1N=CNC2=C1NC=N2

> <JCHEM_ACCEPTOR_COUNT>
3

> <JCHEM_DONOR_COUNT>
2

> <JCHEM_ACIDIC_PKA>
9.5

> <JCHEM_BASIC_PKA>
2.99

> <JCHEM_PHYSIOLOGICAL_CHARGE>
0

> <ALOGPS_LOGP>
-0.13

> <JCHEM_LOGP>
-0.12

> <ALOGPS_LOGS>
-2.3

> <JCHEM_POLARIZABILITY>
14.04

> <JCHEM_POLAR_SURFACE_AREA>
53.07

> <JCHEM_REFRACTIVITY>
43.6

> <JCHEM_ROTATABLE_BOND_COUNT>
0

> <ALOGPS_SOLUBILITY>
7.35e-01 g/l __ 

$$$$
