1393
  Mrv0541 02231215282D          

 25 26  0  0  0  0            999 V2000
    2.3645   -5.0780    0.0000 Cl   0  0  0  0  0  0  0  0  0  0  0  0
    3.7935    3.1722    0.0000 O    0  0  0  0  0  0  0  0  0  0  0  0
    5.2224    4.8222    0.0000 O    0  0  0  0  0  0  0  0  0  0  0  0
    5.9370    3.5847    0.0000 O    0  0  0  0  0  0  0  0  0  0  0  0
    1.6500   -1.3654    0.0000 O    0  0  0  0  0  0  0  0  0  0  0  0
    3.0791   -1.3654    0.0000 N    0  0  0  0  0  0  0  0  0  0  0  0
    4.5080    3.5847    0.0000 C    0  0  0  0  0  0  0  0  0  0  0  0
    3.7935   -0.1279    0.0000 C    0  0  0  0  0  0  0  0  0  0  0  0
    3.7935    0.6971    0.0000 C    0  0  0  0  0  0  0  0  0  0  0  0
    3.0791   -0.5404    0.0000 C    0  0  0  0  0  0  0  0  0  0  0  0
    3.7935    2.3472    0.0000 C    0  0  0  0  0  0  0  0  0  0  0  0
    4.0955    4.2992    0.0000 C    0  0  0  0  0  0  0  0  0  0  0  0
    4.9205    2.8702    0.0000 C    0  0  0  0  0  0  0  0  0  0  0  0
    3.0791    1.1096    0.0000 C    0  0  0  0  0  0  0  0  0  0  0  0
    4.5080    1.1096    0.0000 C    0  0  0  0  0  0  0  0  0  0  0  0
    3.0791    1.9347    0.0000 C    0  0  0  0  0  0  0  0  0  0  0  0
    4.5080    1.9347    0.0000 C    0  0  0  0  0  0  0  0  0  0  0  0
    5.2224    3.9972    0.0000 C    0  0  0  0  0  0  0  0  0  0  0  0
    2.3645   -1.7779    0.0000 C    0  0  0  0  0  0  0  0  0  0  0  0
    2.3645   -2.6029    0.0000 C    0  0  0  0  0  0  0  0  0  0  0  0
    3.0791   -3.0154    0.0000 C    0  0  0  0  0  0  0  0  0  0  0  0
    1.6500   -3.0154    0.0000 C    0  0  0  0  0  0  0  0  0  0  0  0
    3.0791   -3.8405    0.0000 C    0  0  0  0  0  0  0  0  0  0  0  0
    1.6500   -3.8405    0.0000 C    0  0  0  0  0  0  0  0  0  0  0  0
    2.3645   -4.2530    0.0000 C    0  0  0  0  0  0  0  0  0  0  0  0
  1 25  1  0  0  0  0
  2  7  1  0  0  0  0
  2 11  1  0  0  0  0
  3 18  1  0  0  0  0
  4 18  2  0  0  0  0
  5 19  2  0  0  0  0
  6 10  1  0  0  0  0
  6 19  1  0  0  0  0
  7 12  1  0  0  0  0
  7 13  1  0  0  0  0
  7 18  1  0  0  0  0
  8  9  1  0  0  0  0
  8 10  1  0  0  0  0
  9 14  2  0  0  0  0
  9 15  1  0  0  0  0
 11 16  2  0  0  0  0
 11 17  1  0  0  0  0
 14 16  1  0  0  0  0
 15 17  2  0  0  0  0
 19 20  1  0  0  0  0
 20 21  2  0  0  0  0
 20 22  1  0  0  0  0
 21 23  1  0  0  0  0
 22 24  2  0  0  0  0
 23 25  2  0  0  0  0
 24 25  1  0  0  0  0
M  END
> <DRUGBANK_ID>
DB01393

> <DRUG_GROUPS>
approved

> <GENERIC_NAME>
Bezafibrate

> <SYNONYMS>
Bezafibrato; Bezafibratum

> <BRANDS>
Befizal; Bezalip

> <CHEMICAL_FORMULA>
C19H20ClNO4

> <MOLECULAR_WEIGHT>
361.819

> <EXACT_MASS>
361.10808584

> <IUPAC_NAME>
2-(4-{2-[(4-chlorophenyl)formamido]ethyl}phenoxy)-2-methylpropanoic acid

> <IUPAC_TRADITIONAL_NAME>
bezafibrate

> <INCHI_IDENTIFIER>
InChI=1S/C19H20ClNO4/c1-19(2,18(23)24)25-16-9-3-13(4-10-16)11-12-21-17(22)14-5-7-15(20)8-6-14/h3-10H,11-12H2,1-2H3,(H,21,22)(H,23,24)

> <INCHI_KEY>
InChIKey=IIBYAHWJQTYFKB-UHFFFAOYSA-N

> <SMILES>
CC(C)(OC1=CC=C(CCNC(=O)C2=CC=C(Cl)C=C2)C=C1)C(O)=O

> <JCHEM_ACCEPTOR_COUNT>
4

> <JCHEM_DONOR_COUNT>
2

> <JCHEM_ACIDIC_PKA>
3.83

> <JCHEM_BASIC_PKA>
-0.84

> <JCHEM_PHYSIOLOGICAL_CHARGE>
-1

> <ALOGPS_LOGP>
3.97

> <JCHEM_LOGP>
3.99

> <ALOGPS_LOGS>
-5.4

> <JCHEM_POLARIZABILITY>
37.53

> <JCHEM_POLAR_SURFACE_AREA>
75.63

> <JCHEM_REFRACTIVITY>
95.96

> <JCHEM_ROTATABLE_BOND_COUNT>
7

> <ALOGPS_SOLUBILITY>
1.55e-03 g/l __ 

$$$$
