
  Mrv0541 02231215382D          

 26 28  0  0  1  0            999 V2000
   -3.4255   -1.9958    0.0000 C   0  0  0  0  0  0  0  0  0  0  0  0
   -2.6719   -2.3314    0.0000 C   0  0  1  0  0  0  0  0  0  0  0  0
   -2.5856   -3.1518    0.0000 O   0  0  0  0  0  0  0  0  0  0  0  0
   -2.0044   -1.8464    0.0000 C   0  0  1  0  0  0  0  0  0  0  0  0
   -2.0907   -1.0260    0.0000 N   0  0  0  0  0  0  0  0  0  0  0  0
   -1.2508   -2.1820    0.0000 C   0  0  0  0  0  0  0  0  0  0  0  0
   -0.5363   -1.7695    0.0000 N   0  0  0  0  0  0  0  0  0  0  0  0
    0.0768   -2.3215    0.0000 C   0  0  0  0  0  0  0  0  0  0  0  0
    0.8838   -2.1500    0.0000 C   0  0  0  0  0  0  0  0  0  0  0  0
    1.1387   -1.3654    0.0000 C   0  0  0  0  0  0  0  0  0  0  0  0
    0.6538   -0.6979    0.0000 C   0  0  0  0  0  0  0  0  0  0  0  0
    1.1387   -0.0305    0.0000 N   0  0  0  0  0  0  0  0  0  0  0  0
    1.9233   -0.2854    0.0000 C   0  0  0  0  0  0  0  0  0  0  0  0
    2.6378    0.1271    0.0000 C   0  0  0  0  0  0  0  0  0  0  0  0
    3.3523   -0.2854    0.0000 C   0  0  0  0  0  0  0  0  0  0  0  0
    3.3523   -1.1104    0.0000 C   0  0  0  0  0  0  0  0  0  0  0  0
    2.6378   -1.5229    0.0000 C   0  0  0  0  0  0  0  0  0  0  0  0
    2.6378   -2.3479    0.0000 F   0  0  0  0  0  0  0  0  0  0  0  0
    1.9233   -1.1104    0.0000 C   0  0  0  0  0  0  0  0  0  0  0  0
   -0.2587   -3.0752    0.0000 C   0  0  0  0  0  0  0  0  0  0  0  0
    0.1538   -3.7897    0.0000 O   0  0  0  0  0  0  0  0  0  0  0  0
   -1.0792   -2.9890    0.0000 N   0  0  0  0  0  0  0  0  0  0  0  0
   -1.6313   -3.6021    0.0000 C   0  0  0  0  0  0  0  0  0  0  0  0
   -1.3763   -4.3867    0.0000 C   0  0  0  0  0  0  0  0  0  0  0  0
   -0.5693   -4.5582    0.0000 O   0  0  0  0  0  0  0  0  0  0  0  0
   -1.9284   -4.9998    0.0000 O   0  0  0  0  0  0  0  0  0  0  0  0
  1  2  1  0  0  0  0
  2  3  1  6  0  0  0
  2  4  1  0  0  0  0
  4  5  1  1  0  0  0
  4  6  1  0  0  0  0
  6  7  2  0  0  0  0
  7  8  1  0  0  0  0
  8  9  1  0  0  0  0
  9 10  1  0  0  0  0
 10 11  4  0  0  0  0
 11 12  4  0  0  0  0
 12 13  4  0  0  0  0
 13 14  4  0  0  0  0
 14 15  4  0  0  0  0
 15 16  4  0  0  0  0
 16 17  4  0  0  0  0
 17 18  1  0  0  0  0
 17 19  4  0  0  0  0
 10 19  4  0  0  0  0
 13 19  4  0  0  0  0
  8 20  2  0  0  0  0
 20 21  1  0  0  0  0
 20 22  1  0  0  0  0
  6 22  1  0  0  0  0
 22 23  1  0  0  0  0
 23 24  1  0  0  0  0
 24 25  1  0  0  0  0
 24 26  2  0  0  0  0
M  END
> <DRUGBANK_ID>
DB01674

> <DRUG_GROUPS>
experimental

> <GENERIC_NAME>
[2-(1-Amino-2-Hydroxy-Propyl)-4-(4-Fluoro-1h-Indol-3-Ylmethyl)-5-Hydroxy-Imidazol-1-Yl]-Acetic Acid

> <CHEMICAL_FORMULA>
C17H18FN4O4

> <MOLECULAR_WEIGHT>
361.3476

> <EXACT_MASS>
361.131208289

> <IUPAC_NAME>
2-{2-[(1S,2R)-1-amino-2-hydroxypropyl]-4-[(4-fluoroindol-3-yl)methyl]-5-hydroxy-1H-imidazol-1-yl}acetic acid

> <IUPAC_TRADITIONAL_NAME>
{2-[(1S,2R)-1-amino-2-hydroxypropyl]-4-[(4-fluoroindol-3-yl)methyl]-5-hydroxyimidazol-1-yl}acetic acid

> <SMILES>
C[C@@H](O)[C@@H](N)C1=NC(Cc2cnc3cccc(F)c23)=C(O)N1CC(O)=O

> <JCHEM_ACCEPTOR_COUNT>
7

> <JCHEM_DONOR_COUNT>
4

> <JCHEM_ACIDIC_PKA>
2.98

> <JCHEM_BASIC_PKA>
7.61

> <JCHEM_PHYSIOLOGICAL_CHARGE>
0

> <ALOGPS_LOGP>
-0.55

> <JCHEM_LOGP>
-1.9

> <ALOGPS_LOGS>
-3.1

> <JCHEM_POLARIZABILITY>
34.95

> <JCHEM_POLAR_SURFACE_AREA>
134.49

> <JCHEM_REFRACTIVITY>
88.59

> <JCHEM_ROTATABLE_BOND_COUNT>
6

> <ALOGPS_SOLUBILITY>
3.16e-01 g/l __ 

$$$$
