
  Mrv0541 02231215372D          

 26 27  0  0  1  0            999 V2000
   -6.6835    2.7975    0.0000 C   0  0  0  0  0  0  0  0  0  0  0  0
   -5.8630    2.8837    0.0000 C   0  0  0  0  0  0  0  0  0  0  0  0
   -5.5274    3.6374    0.0000 C   0  0  0  0  0  0  0  0  0  0  0  0
   -4.7070    3.7236    0.0000 C   0  0  0  0  0  0  0  0  0  0  0  0
   -4.2220    3.0562    0.0000 C   0  0  0  0  0  0  0  0  0  0  0  0
   -3.4016    3.1424    0.0000 C   0  0  0  0  0  0  0  0  0  0  0  0
   -3.0660    3.8961    0.0000 N   0  3  0  0  0  0  0  0  0  0  0  0
   -3.4785    4.6106    0.0000 C   0  0  0  0  0  0  0  0  0  0  0  0
   -2.9265    5.2237    0.0000 S   0  0  0  0  0  0  0  0  0  0  0  0
   -2.1728    4.8881    0.0000 C   0  0  0  0  0  0  0  0  0  0  0  0
   -1.4583    5.3006    0.0000 C   0  0  0  0  0  0  0  0  0  0  0  0
   -0.7438    4.8881    0.0000 C   0  0  0  0  0  0  0  0  0  0  0  0
   -0.0294    5.3006    0.0000 O   0  0  0  0  0  0  0  0  0  0  0  0
    0.6851    4.8881    0.0000 P   0  0  2  0  0  0  0  0  0  0  0  0
    0.2726    4.1737    0.0000 O   0  0  0  0  0  0  0  0  0  0  0  0
    1.0976    5.6026    0.0000 O   0  0  0  0  0  0  0  0  0  0  0  0
    1.3996    4.4756    0.0000 O   0  0  0  0  0  0  0  0  0  0  0  0
    2.1140    4.8881    0.0000 P   0  0  2  0  0  0  0  0  0  0  0  0
    2.8285    5.3006    0.0000 O   0  0  0  0  0  0  0  0  0  0  0  0
    2.5265    4.1737    0.0000 O   0  5  0  0  0  0  0  0  0  0  0  0
    1.7015    5.6026    0.0000 O   0  0  0  0  0  0  0  0  0  0  0  0
   -2.2590    4.0676    0.0000 C   0  0  0  0  0  0  0  0  0  0  0  0
   -1.6459    3.5156    0.0000 C   0  0  0  0  0  0  0  0  0  0  0  0
   -4.5576    2.3025    0.0000 C   0  0  0  0  0  0  0  0  0  0  0  0
   -4.0727    1.6351    0.0000 N   0  0  0  0  0  0  0  0  0  0  0  0
   -5.3781    2.2163    0.0000 N   0  0  0  0  0  0  0  0  0  0  0  0
  1  2  1  0  0  0  0
  2  3  2  0  0  0  0
  3  4  1  0  0  0  0
  4  5  2  0  0  0  0
  5  6  1  0  0  0  0
  6  7  1  0  0  0  0
  7  8  2  0  0  0  0
  8  9  1  0  0  0  0
  9 10  1  0  0  0  0
 10 11  1  0  0  0  0
 11 12  1  0  0  0  0
 12 13  1  0  0  0  0
 14 13  1  6  0  0  0
 14 15  1  1  0  0  0
 14 16  2  0  0  0  0
 14 17  1  0  0  0  0
 17 18  1  0  0  0  0
 18 19  1  6  0  0  0
 18 20  1  1  0  0  0
 18 21  2  0  0  0  0
 10 22  2  0  0  0  0
  7 22  1  0  0  0  0
 22 23  1  0  0  0  0
  5 24  1  0  0  0  0
 24 25  1  0  0  0  0
 24 26  2  0  0  0  0
  2 26  1  0  0  0  0
M  END
> <DRUGBANK_ID>
DB01658

> <DRUG_GROUPS>
experimental

> <GENERIC_NAME>
1'-Deazo-Thiamin Diphosphate

> <CHEMICAL_FORMULA>
C13H19N3O7P2S

> <MOLECULAR_WEIGHT>
423.318

> <EXACT_MASS>
423.041893691

> <IUPAC_NAME>
3-[(2-amino-6-methylpyridin-3-yl)methyl]-5-(2-{[(hydrogen phosphonatooxy)(hydroxy)phosphoryl]oxy}ethyl)-4-methyl-1,3-thiazol-3-ium

> <IUPAC_TRADITIONAL_NAME>
3-[(2-amino-6-methylpyridin-3-yl)methyl]-5-(2-{[hydrogen phosphonatooxy(hydroxy)phosphoryl]oxy}ethyl)-4-methyl-1,3-thiazol-3-ium

> <INCHI_IDENTIFIER>
InChI=1S/C13H19N3O7P2S/c1-9-3-4-11(13(14)15-9)7-16-8-26-12(10(16)2)5-6-22-25(20,21)23-24(17,18)19/h3-4,8H,5-7H2,1-2H3,(H4-,14,15,17,18,19,20,21)

> <INCHI_KEY>
InChIKey=JHNXLHRDUXBCJW-UHFFFAOYSA-N

> <SMILES>
CC1=C(CCO[P@](O)(=O)O[P@](O)([O-])=O)SC=[N+]1CC1=CC=C(C)N=C1N

> <JCHEM_ACCEPTOR_COUNT>
7

> <JCHEM_DONOR_COUNT>
3

> <JCHEM_ACIDIC_PKA>
1.78

> <JCHEM_BASIC_PKA>
6.98

> <JCHEM_PHYSIOLOGICAL_CHARGE>
0

> <ALOGPS_LOGP>
-0.88

> <JCHEM_LOGP>
-5.6

> <ALOGPS_LOGS>
-3.5

> <JCHEM_POLARIZABILITY>
36.48

> <JCHEM_POLAR_SURFACE_AREA>
158.91

> <JCHEM_REFRACTIVITY>
95.17

> <JCHEM_ROTATABLE_BOND_COUNT>
8

> <ALOGPS_SOLUBILITY>
1.57e-01 g/l __ 

$$$$
