1123
  Mrv0541 02231215162D          

 16 18  0  0  0  0            999 V2000
    4.8066    0.5507    0.0000 N   0  0  0  0  0  0  0  0  0  0  0  0
    7.6027    0.5698    0.0000 N   0  0  0  0  0  0  0  0  0  0  0  0
    2.0104    0.5698    0.0000 N   0  0  0  0  0  0  0  0  0  0  0  0
    5.4925   -0.6374    0.0000 C   0  0  0  0  0  0  0  0  0  0  0  0
    4.1206   -0.6374    0.0000 C   0  0  0  0  0  0  0  0  0  0  0  0
    5.4925    0.1547    0.0000 C   0  0  0  0  0  0  0  0  0  0  0  0
    4.1206    0.1547    0.0000 C   0  0  0  0  0  0  0  0  0  0  0  0
    4.8066   -1.0334    0.0000 C   0  0  0  0  0  0  0  0  0  0  0  0
    6.2005   -1.0609    0.0000 C   0  0  0  0  0  0  0  0  0  0  0  0
    3.4125   -1.0609    0.0000 C   0  0  0  0  0  0  0  0  0  0  0  0
    6.2005    0.5781    0.0000 C   0  0  0  0  0  0  0  0  0  0  0  0
    3.4125    0.5781    0.0000 C   0  0  0  0  0  0  0  0  0  0  0  0
    6.9183    0.1712    0.0000 C   0  0  0  0  0  0  0  0  0  0  0  0
    2.6948    0.1712    0.0000 C   0  0  0  0  0  0  0  0  0  0  0  0
    6.9183   -0.6539    0.0000 C   0  0  0  0  0  0  0  0  0  0  0  0
    2.6948   -0.6539    0.0000 C   0  0  0  0  0  0  0  0  0  0  0  0
  1  6  2  0  0  0  0
  1  7  1  0  0  0  0
  2 13  1  0  0  0  0
  3 14  1  0  0  0  0
  4  6  1  0  0  0  0
  4  8  2  0  0  0  0
  4  9  1  0  0  0  0
  5  7  2  0  0  0  0
  5  8  1  0  0  0  0
  5 10  1  0  0  0  0
  6 11  1  0  0  0  0
  7 12  1  0  0  0  0
  9 15  2  0  0  0  0
 10 16  2  0  0  0  0
 11 13  2  0  0  0  0
 12 14  2  0  0  0  0
 13 15  1  0  0  0  0
 14 16  1  0  0  0  0
M  END
> <DRUGBANK_ID>
DB01123

> <DRUG_GROUPS>
approved

> <GENERIC_NAME>
Proflavine

> <SYNONYMS>
2,8-Diaminoacridine; 3,6-acridinediamine; 3,6-diaminoacridine; Diaminoacridine; Proflavin

> <CHEMICAL_FORMULA>
C13H11N3

> <MOLECULAR_WEIGHT>
209.2465

> <EXACT_MASS>
209.095297367

> <IUPAC_NAME>
acridine-3,6-diamine

> <IUPAC_TRADITIONAL_NAME>
proflavine

> <INCHI_IDENTIFIER>
InChI=1S/C13H11N3/c14-10-3-1-8-5-9-2-4-11(15)7-13(9)16-12(8)6-10/h1-7H,14-15H2

> <INCHI_KEY>
InChIKey=WDVSHHCDHLJJJR-UHFFFAOYSA-N

> <SMILES>
NC1=CC2=NC3=C(C=CC(N)=C3)C=C2C=C1

> <JCHEM_ACCEPTOR_COUNT>
3

> <JCHEM_DONOR_COUNT>
2

> <JCHEM_BASIC_PKA>
8.32

> <JCHEM_PHYSIOLOGICAL_CHARGE>
1

> <ALOGPS_LOGP>
2.1

> <JCHEM_LOGP>
1.85

> <ALOGPS_LOGS>
-3.3

> <JCHEM_POLARIZABILITY>
23.17

> <JCHEM_POLAR_SURFACE_AREA>
64.93

> <JCHEM_REFRACTIVITY>
65.46

> <JCHEM_ROTATABLE_BOND_COUNT>
0

> <ALOGPS_SOLUBILITY>
1.04e-01 g/l __ 

$$$$
