
  Mrv0541 02231215462D          

 12 12  0  0  1  0            999 V2000
    2.0198    0.8843    0.0000 C   0  0  0  0  0  0  0  0  0  0  0  0
    1.2352    0.6294    0.0000 C   0  0  1  0  0  0  0  0  0  0  0  0
    0.9803   -0.1553    0.0000 C   0  0  0  0  0  0  0  0  0  0  0  0
    0.1553   -0.1553    0.0000 C   0  0  2  0  0  0  0  0  0  0  0  0
   -0.0997    0.6294    0.0000 N   0  0  0  0  0  0  0  0  0  0  0  0
    0.5678    1.1143    0.0000 C   0  0  2  0  0  0  0  0  0  0  0  0
    0.5678    1.9393    0.0000 C   0  0  0  0  0  0  0  0  0  0  0  0
    1.2822    2.3518    0.0000 O   0  0  0  0  0  0  0  0  0  0  0  0
   -0.1467    2.3518    0.0000 O   0  0  0  0  0  0  0  0  0  0  0  0
   -0.3297   -0.8227    0.0000 N   0  0  0  0  0  0  0  0  0  0  0  0
    0.0059   -1.5764    0.0000 C   0  0  0  0  0  0  0  0  0  0  0  0
   -1.1501   -0.7365    0.0000 O   0  0  0  0  0  0  0  0  0  0  0  0
  2  1  1  1  0  0  0
  2  3  1  0  0  0  0
  3  4  1  0  0  0  0
  4  5  1  0  0  0  0
  5  6  1  0  0  0  0
  2  6  1  0  0  0  0
  6  7  1  6  0  0  0
  7  8  1  0  0  0  0
  7  9  2  0  0  0  0
  4 10  1  1  0  0  0
 10 11  1  0  0  0  0
 10 12  1  0  0  0  0
M  END
> <DRUGBANK_ID>
DB01855

> <DRUG_GROUPS>
experimental

> <GENERIC_NAME>
5-(Hydroxy-Methyl-Amino)-3-Methyl-Pyrrolidine-2-Carboxylic Acid

> <CHEMICAL_FORMULA>
C7H14N2O3

> <MOLECULAR_WEIGHT>
174.1977

> <EXACT_MASS>
174.100442324

> <IUPAC_NAME>
(2S,3S,5R)-5-[hydroxy(methyl)amino]-3-methylpyrrolidine-2-carboxylic acid

> <IUPAC_TRADITIONAL_NAME>
(2S,3S,5R)-5-[hydroxy(methyl)amino]-3-methylpyrrolidine-2-carboxylic acid

> <INCHI_IDENTIFIER>
InChI=1S/C7H14N2O3/c1-4-3-5(9(2)12)8-6(4)7(10)11/h4-6,8,12H,3H2,1-2H3,(H,10,11)/t4-,5+,6-/m0/s1

> <INCHI_KEY>
InChIKey=PGYJBAGGGAUHGV-JKUQZMGJSA-N

> <SMILES>
C[C@H]1C[C@H](N[C@@H]1C(O)=O)N(C)O

> <JCHEM_ACCEPTOR_COUNT>
5

> <JCHEM_DONOR_COUNT>
3

> <JCHEM_ACIDIC_PKA>
3.11

> <JCHEM_BASIC_PKA>
7.43

> <JCHEM_PHYSIOLOGICAL_CHARGE>
0

> <ALOGPS_LOGP>
-2.5

> <JCHEM_LOGP>
-2.8

> <ALOGPS_LOGS>
-0.01

> <JCHEM_POLARIZABILITY>
17.67

> <JCHEM_POLAR_SURFACE_AREA>
72.8

> <JCHEM_REFRACTIVITY>
41.87

> <JCHEM_ROTATABLE_BOND_COUNT>
2

> <ALOGPS_SOLUBILITY>
1.70e+02 g/l __ 

$$$$
