
  Mrv0541 02231215382D          

 44 47  0  0  1  0            999 V2000
   -3.2056    4.3648    0.0000 N   0  0  0  0  0  0  0  0  0  0  0  0
   -2.3986    4.5363    0.0000 C   0  0  0  0  0  0  0  0  0  0  0  0
   -2.1437    5.3209    0.0000 N   0  0  0  0  0  0  0  0  0  0  0  0
   -1.3367    5.4924    0.0000 C   0  0  0  0  0  0  0  0  0  0  0  0
   -0.7847    4.8794    0.0000 N   0  0  0  0  0  0  0  0  0  0  0  0
   -1.0396    4.0947    0.0000 C   0  0  0  0  0  0  0  0  0  0  0  0
   -1.8466    3.9232    0.0000 C   0  0  0  0  0  0  0  0  0  0  0  0
   -1.9328    3.1027    0.0000 N   0  0  0  0  0  0  0  0  0  0  0  0
   -1.1791    2.7672    0.0000 C   0  0  0  0  0  0  0  0  0  0  0  0
   -0.6271    3.3803    0.0000 N   0  0  0  0  0  0  0  0  0  0  0  0
    0.1934    3.2940    0.0000 C   0  0  2  0  0  0  0  0  0  0  0  0
    0.7454    3.9071    0.0000 O   0  0  0  0  0  0  0  0  0  0  0  0
    1.4991    3.5716    0.0000 C   0  0  2  0  0  0  0  0  0  0  0  0
    2.2136    3.9841    0.0000 C   0  0  0  0  0  0  0  0  0  0  0  0
    2.9280    3.5716    0.0000 O   0  0  0  0  0  0  0  0  0  0  0  0
    3.6425    3.9841    0.0000 P   0  0  2  0  0  0  0  0  0  0  0  0
    3.2300    4.6985    0.0000 O   0  5  0  0  0  0  0  0  0  0  0  0
    4.0550    3.2696    0.0000 O   0  0  0  0  0  0  0  0  0  0  0  0
    4.3570    4.3966    0.0000 O   0  0  0  0  0  0  0  0  0  0  0  0
    5.0714    3.9841    0.0000 P   0  0  2  0  0  0  0  0  0  0  0  0
    5.4839    4.6985    0.0000 O   0  5  0  0  0  0  0  0  0  0  0  0
    4.6589    3.2696    0.0000 O   0  0  0  0  0  0  0  0  0  0  0  0
    5.7859    3.5716    0.0000 O   0  0  0  0  0  0  0  0  0  0  0  0
    6.5004    3.9841    0.0000 P   0  0  0  0  0  0  0  0  0  0  0  0
    7.2149    4.3966    0.0000 O   0  5  0  0  0  0  0  0  0  0  0  0
    6.0879    4.6985    0.0000 O   0  5  0  0  0  0  0  0  0  0  0  0
    6.9129    3.2696    0.0000 O   0  0  0  0  0  0  0  0  0  0  0  0
    1.4129    2.7511    0.0000 C   0  0  2  0  0  0  0  0  0  0  0  0
    2.0260    2.1990    0.0000 O   0  0  0  0  0  0  0  0  0  0  0  0
    0.6059    2.5796    0.0000 C   0  0  1  0  0  0  0  0  0  0  0  0
    0.2703    1.8259    0.0000 O   0  0  0  0  0  0  0  0  0  0  0  0
   -2.6957    5.9340    0.0000 C   0  0  2  0  0  0  0  0  0  0  0  0
   -3.5162    5.8478    0.0000 O   0  0  0  0  0  0  0  0  0  0  0  0
   -3.8517    6.6015    0.0000 C   0  0  2  0  0  0  0  0  0  0  0  0
   -4.6587    6.7730    0.0000 C   0  0  0  0  0  0  0  0  0  0  0  0
   -4.9136    7.5576    0.0000 O   0  0  0  0  0  0  0  0  0  0  0  0
   -5.7206    7.7291    0.0000 P   0  0  0  0  0  0  0  0  0  0  0  0
   -6.5276    7.9007    0.0000 O   0  5  0  0  0  0  0  0  0  0  0  0
   -5.5491    8.5361    0.0000 O   0  5  0  0  0  0  0  0  0  0  0  0
   -5.8921    6.9222    0.0000 O   0  0  0  0  0  0  0  0  0  0  0  0
   -3.2386    7.1535    0.0000 C   0  0  1  0  0  0  0  0  0  0  0  0
   -3.3249    7.9740    0.0000 O   0  0  0  0  0  0  0  0  0  0  0  0
   -2.5242    6.7410    0.0000 C   0  0  1  0  0  0  0  0  0  0  0  0
   -1.7705    7.0765    0.0000 O   0  0  0  0  0  0  0  0  0  0  0  0
  1  2  2  0  0  0  0
  2  3  1  0  0  0  0
  3  4  1  0  0  0  0
  4  5  2  0  0  0  0
  5  6  1  0  0  0  0
  6  7  2  0  0  0  0
  2  7  1  0  0  0  0
  7  8  1  0  0  0  0
  8  9  2  0  0  0  0
  9 10  1  0  0  0  0
  6 10  1  0  0  0  0
 11 10  1  6  0  0  0
 11 12  1  0  0  0  0
 12 13  1  0  0  0  0
 13 14  1  6  0  0  0
 14 15  1  0  0  0  0
 16 15  1  1  0  0  0
 16 17  1  6  0  0  0
 16 18  2  0  0  0  0
 16 19  1  0  0  0  0
 20 19  1  1  0  0  0
 20 21  1  6  0  0  0
 20 22  2  0  0  0  0
 20 23  1  0  0  0  0
 23 24  1  0  0  0  0
 24 25  1  0  0  0  0
 24 26  1  0  0  0  0
 24 27  2  0  0  0  0
 13 28  1  0  0  0  0
 28 29  1  6  0  0  0
 28 30  1  0  0  0  0
 11 30  1  0  0  0  0
 30 31  1  1  0  0  0
 32  3  1  6  0  0  0
 32 33  1  0  0  0  0
 33 34  1  0  0  0  0
 34 35  1  6  0  0  0
 35 36  1  0  0  0  0
 36 37  1  0  0  0  0
 37 38  1  0  0  0  0
 37 39  1  0  0  0  0
 37 40  2  0  0  0  0
 34 41  1  0  0  0  0
 41 42  1  1  0  0  0
 41 43  1  0  0  0  0
 32 43  1  0  0  0  0
 43 44  1  1  0  0  0
M  END
> <DRUGBANK_ID>
DB01661

> <DRUG_GROUPS>
experimental

> <GENERIC_NAME>
Phosphoribosyl Atp

> <CHEMICAL_FORMULA>
C15H19N5O20P4

> <MOLECULAR_WEIGHT>
713.2279

> <EXACT_MASS>
712.957384121

> <IUPAC_NAME>
(R)-{[(S)-([(2R,3R,4R,5R)-5-{1-[(2R,3R,4S,5R)-3,4-dihydroxy-5-[(phosphonatooxy)methyl]oxolan-2-yl]-6-imino-6,9-dihydro-1H-purin-9-yl}-3,4-dihydroxyoxolan-2-yl]methyl phosphonato)]oxy}(phosphonatooxy)phosphinate

> <IUPAC_TRADITIONAL_NAME>
(R)-[(S)-([(2R,3R,4R,5R)-5-{1-[(2R,3R,4S,5R)-3,4-dihydroxy-5-[(phosphonatooxy)methyl]oxolan-2-yl]-6-iminopurin-9-yl}-3,4-dihydroxyoxolan-2-yl]methyl phosphonato)]oxy(phosphonatooxy)phosphinate

> <INCHI_IDENTIFIER>
InChI=1S/C15H25N5O20P4/c16-12-7-13(18-4-19(12)14-10(23)8(21)5(37-14)1-35-41(25,26)27)20(3-17-7)15-11(24)9(22)6(38-15)2-36-43(31,32)40-44(33,34)39-42(28,29)30/h3-6,8-11,14-16,21-24H,1-2H2,(H,31,32)(H,33,34)(H2,25,26,27)(H2,28,29,30)/p-6/t5-,6-,8-,9+,10-,11-,14-,15-/m1/s1

> <INCHI_KEY>
InChIKey=RKNHJBVBFHDXGR-QBPNNELESA-H

> <SMILES>
O[C@@H]1[C@@H](O)[C@@H](O[C@@H]1CO[P@]([O-])(=O)O[P@]([O-])(=O)OP([O-])([O-])=O)N1C=NC2=C1N=CN([C@@H]1O[C@H](COP([O-])([O-])=O)[C@@H](O)[C@H]1O)C2=N

> <JCHEM_ACCEPTOR_COUNT>
20

> <JCHEM_DONOR_COUNT>
5

> <JCHEM_ACIDIC_PKA>
0.66

> <JCHEM_BASIC_PKA>
1.71

> <JCHEM_PHYSIOLOGICAL_CHARGE>
-5

> <ALOGPS_LOGP>
-0.59

> <JCHEM_LOGP>
-5

> <ALOGPS_LOGS>
-1.7

> <JCHEM_POLARIZABILITY>
54.63

> <JCHEM_POLAR_SURFACE_AREA>
400.21

> <JCHEM_REFRACTIVITY>
137.56

> <JCHEM_ROTATABLE_BOND_COUNT>
12

> <ALOGPS_SOLUBILITY>
1.79e+01 g/l __ 

$$$$
