
  Mrv0541 02231215472D          

 19 19  0  0  1  0            999 V2000
    2.8579    2.4750    0.0000 C   0  0  0  0  0  0  0  0  0  0  0  0
    2.1434    2.0625    0.0000 C   0  0  0  0  0  0  0  0  0  0  0  0
    1.4289    2.4750    0.0000 O   0  0  0  0  0  0  0  0  0  0  0  0
    2.1434    1.2375    0.0000 N   0  0  0  0  0  0  0  0  0  0  0  0
    1.4289    0.8250    0.0000 C   0  0  1  0  0  0  0  0  0  0  0  0
    1.4289    0.0000    0.0000 C   0  0  2  0  0  0  0  0  0  0  0  0
    2.1434   -0.4125    0.0000 O   0  0  0  0  0  0  0  0  0  0  0  0
    0.7145   -0.4125    0.0000 O   0  0  0  0  0  0  0  0  0  0  0  0
    0.0000    0.0000    0.0000 C   0  0  2  0  0  0  0  0  0  0  0  0
   -0.7145   -0.4125    0.0000 C   0  0  0  0  0  0  0  0  0  0  0  0
   -0.7145   -1.2375    0.0000 O   0  0  0  0  0  0  0  0  0  0  0  0
    0.0000    0.8250    0.0000 C   0  0  1  0  0  0  0  0  0  0  0  0
   -0.7145    1.2375    0.0000 O   0  0  0  0  0  0  0  0  0  0  0  0
   -0.7145    2.0625    0.0000 S   0  0  0  0  0  0  0  0  0  0  0  0
    0.1105    2.0625    0.0000 O   0  0  0  0  0  0  0  0  0  0  0  0
   -1.5395    2.0625    0.0000 O   0  0  0  0  0  0  0  0  0  0  0  0
   -0.7145    2.8875    0.0000 O   0  0  0  0  0  0  0  0  0  0  0  0
    0.7145    1.2375    0.0000 C   0  0  2  0  0  0  0  0  0  0  0  0
    0.7145    2.0625    0.0000 O   0  0  0  0  0  0  0  0  0  0  0  0
  1  2  1  0  0  0  0
  2  3  2  0  0  0  0
  2  4  1  0  0  0  0
  5  4  1  1  0  0  0
  5  6  1  0  0  0  0
  6  7  1  6  0  0  0
  6  8  1  0  0  0  0
  8  9  1  0  0  0  0
  9 10  1  6  0  0  0
 10 11  1  0  0  0  0
  9 12  1  0  0  0  0
 12 13  1  1  0  0  0
 13 14  1  0  0  0  0
 14 15  1  0  0  0  0
 14 16  2  0  0  0  0
 14 17  2  0  0  0  0
 12 18  1  0  0  0  0
  5 18  1  0  0  0  0
 18 19  1  6  0  0  0
M  END
> <DRUGBANK_ID>
DB01872

> <DRUG_GROUPS>
experimental

> <GENERIC_NAME>
Acetylgalactosamine-4-Sulfate

> <CHEMICAL_FORMULA>
C8H15NO9S

> <MOLECULAR_WEIGHT>
301.271

> <EXACT_MASS>
301.046751773

> <IUPAC_NAME>
[(2R,3S,4R,5R,6R)-5-acetamido-4,6-dihydroxy-2-(hydroxymethyl)oxan-3-yl]oxidanesulfonic acid

> <IUPAC_TRADITIONAL_NAME>
[(2R,3S,4R,5R,6R)-5-acetamido-4,6-dihydroxy-2-(hydroxymethyl)oxan-3-yl]oxidanesulfonic acid

> <INCHI_IDENTIFIER>
InChI=1S/C8H15NO9S/c1-3(11)9-5-6(12)7(18-19(14,15)16)4(2-10)17-8(5)13/h4-8,10,12-13H,2H2,1H3,(H,9,11)(H,14,15,16)/t4-,5-,6-,7-,8-/m1/s1

> <INCHI_KEY>
InChIKey=WHCJUIFHMJFEFZ-FMDGEEDCSA-N

> <SMILES>
CC(=O)N[C@H]1[C@H](O)O[C@H](CO)[C@@H](OS(O)(=O)=O)[C@@H]1O

> <JCHEM_ACCEPTOR_COUNT>
8

> <JCHEM_DONOR_COUNT>
5

> <JCHEM_ACIDIC_PKA>
-1.9

> <JCHEM_BASIC_PKA>
-0.75

> <JCHEM_PHYSIOLOGICAL_CHARGE>
-1

> <ALOGPS_LOGP>
-2

> <JCHEM_LOGP>
-5

> <ALOGPS_LOGS>
-0.85

> <JCHEM_POLARIZABILITY>
26.09

> <JCHEM_POLAR_SURFACE_AREA>
162.62

> <JCHEM_REFRACTIVITY>
57.02

> <JCHEM_ROTATABLE_BOND_COUNT>
4

> <ALOGPS_SOLUBILITY>
4.29e+01 g/l __ 

$$$$
