
  Mrv0541 02231215452D          

  6  5  0  0  0  0            999 V2000
   -0.1914   -0.7145    0.0000 C   0  0  0  0  0  0  0  0  0  0  0  0
    0.5230   -1.1270    0.0000 C   0  0  0  0  0  0  0  0  0  0  0  0
    1.2375   -0.7145    0.0000 C   0  0  0  0  0  0  0  0  0  0  0  0
    1.9520   -1.1270    0.0000 C   0  0  0  0  0  0  0  0  0  0  0  0
    2.6664   -0.7145    0.0000 N   0  3  0  0  0  0  0  0  0  0  0  0
    3.3809   -0.3020    0.0000 C   0  5  0  0  0  0  0  0  0  0  0  0
  1  2  1  0  0  0  0
  2  3  1  0  0  0  0
  3  4  1  0  0  0  0
  4  5  1  0  0  0  0
  5  6  3  0  0  0  0
M  END
> <DRUGBANK_ID>
DB01826

> <DRUG_GROUPS>
experimental

> <GENERIC_NAME>
N-Butyl Isocyanide

> <CHEMICAL_FORMULA>
C5H9N

> <MOLECULAR_WEIGHT>
83.1317

> <EXACT_MASS>
83.073499293

> <IUPAC_NAME>
1-isocyanobutane

> <IUPAC_TRADITIONAL_NAME>
N-butyl isocyanide

> <INCHI_IDENTIFIER>
InChI=1S/C5H9N/c1-3-4-5-6-2/h3-5H2,1H3

> <INCHI_KEY>
InChIKey=FSBLVBBRXSCOKU-UHFFFAOYSA-N

> <SMILES>
CCCC[N+]#[C-]

> <JCHEM_ACCEPTOR_COUNT>
0

> <JCHEM_DONOR_COUNT>
0

> <JCHEM_ACIDIC_PKA>
16.22

> <JCHEM_PHYSIOLOGICAL_CHARGE>
1

> <ALOGPS_LOGP>
2.16

> <JCHEM_LOGP>
-0.63

> <ALOGPS_LOGS>
-2.4

> <JCHEM_POLARIZABILITY>
10.22

> <JCHEM_POLAR_SURFACE_AREA>
4.36

> <JCHEM_REFRACTIVITY>
35.39

> <JCHEM_ROTATABLE_BOND_COUNT>
2

> <ALOGPS_SOLUBILITY>
5.00e-01 g/l __ 

$$$$
