1115
  Mrv0541 02231215152D          

 25 26  0  0  0  0            999 V2000
    6.6515   -0.5693    0.0000 O   0  0  0  0  0  0  0  0  0  0  0  0
    2.3645   -0.5693    0.0000 O   0  0  0  0  0  0  0  0  0  0  0  0
    5.9370    0.6683    0.0000 O   0  0  0  0  0  0  0  0  0  0  0  0
    3.0791    0.6683    0.0000 O   0  0  0  0  0  0  0  0  0  0  0  0
    5.9370    2.3183    0.0000 O   0  5  0  0  0  0  0  0  0  0  0  0
    6.6515    1.0808    0.0000 O   0  0  0  0  0  0  0  0  0  0  0  0
    4.5080   -1.8068    0.0000 N   0  0  0  0  0  0  0  0  0  0  0  0
    5.9370    1.4933    0.0000 N   0  3  0  0  0  0  0  0  0  0  0  0
    4.5080   -0.1568    0.0000 C   0  0  0  0  0  0  0  0  0  0  0  0
    5.2224   -0.5693    0.0000 C   0  0  0  0  0  0  0  0  0  0  0  0
    3.7935   -0.5693    0.0000 C   0  0  0  0  0  0  0  0  0  0  0  0
    4.5080    0.6683    0.0000 C   0  0  0  0  0  0  0  0  0  0  0  0
    5.2224   -1.3943    0.0000 C   0  0  0  0  0  0  0  0  0  0  0  0
    3.7935   -1.3943    0.0000 C   0  0  0  0  0  0  0  0  0  0  0  0
    5.2224    1.0808    0.0000 C   0  0  0  0  0  0  0  0  0  0  0  0
    3.7935    1.0808    0.0000 C   0  0  0  0  0  0  0  0  0  0  0  0
    5.9370   -0.1568    0.0000 C   0  0  0  0  0  0  0  0  0  0  0  0
    3.0791   -0.1568    0.0000 C   0  0  0  0  0  0  0  0  0  0  0  0
    5.9370   -1.8068    0.0000 C   0  0  0  0  0  0  0  0  0  0  0  0
    3.0791   -1.8068    0.0000 C   0  0  0  0  0  0  0  0  0  0  0  0
    5.2224    1.9058    0.0000 C   0  0  0  0  0  0  0  0  0  0  0  0
    3.7935    1.9058    0.0000 C   0  0  0  0  0  0  0  0  0  0  0  0
    4.5080    2.3183    0.0000 C   0  0  0  0  0  0  0  0  0  0  0  0
    7.3659   -0.1568    0.0000 C   0  0  0  0  0  0  0  0  0  0  0  0
    1.6500   -0.1568    0.0000 C   0  0  0  0  0  0  0  0  0  0  0  0
  1 17  1  0  0  0  0
  1 24  1  0  0  0  0
  2 18  1  0  0  0  0
  2 25  1  0  0  0  0
  3 17  2  0  0  0  0
  4 18  2  0  0  0  0
  5  8  1  0  0  0  0
  6  8  2  0  0  0  0
  7 13  1  0  0  0  0
  7 14  1  0  0  0  0
  8 15  1  0  0  0  0
  9 10  1  0  0  0  0
  9 11  1  0  0  0  0
  9 12  1  0  0  0  0
 10 13  2  0  0  0  0
 10 17  1  0  0  0  0
 11 14  2  0  0  0  0
 11 18  1  0  0  0  0
 12 15  1  0  0  0  0
 12 16  2  0  0  0  0
 13 19  1  0  0  0  0
 14 20  1  0  0  0  0
 15 21  2  0  0  0  0
 16 22  1  0  0  0  0
 21 23  1  0  0  0  0
 22 23  2  0  0  0  0
M  END
> <DRUGBANK_ID>
DB01115

> <DRUG_GROUPS>
approved

> <GENERIC_NAME>
Nifedipine

> <BRANDS>
Adalat; Adapine; Afeditab CR; Coracten; Nifecard; Nifecor; Nifedipres; Procardia; Procardia XL

> <CHEMICAL_FORMULA>
C17H18N2O6

> <MOLECULAR_WEIGHT>
346.3346

> <EXACT_MASS>
346.116486318

> <IUPAC_NAME>
3,5-dimethyl 2,6-dimethyl-4-(2-nitrophenyl)-1,4-dihydropyridine-3,5-dicarboxylate

> <IUPAC_TRADITIONAL_NAME>
nifedipine

> <INCHI_IDENTIFIER>
InChI=1S/C17H18N2O6/c1-9-13(16(20)24-3)15(14(10(2)18-9)17(21)25-4)11-7-5-6-8-12(11)19(22)23/h5-8,15,18H,1-4H3

> <INCHI_KEY>
InChIKey=HYIMSNHJOBLJNT-UHFFFAOYSA-N

> <SMILES>
COC(=O)C1=C(C)NC(C)=C(C1C1=CC=CC=C1[N+]([O-])=O)C(=O)OC

> <JCHEM_ACCEPTOR_COUNT>
5

> <JCHEM_DONOR_COUNT>
1

> <JCHEM_BASIC_PKA>
5.33

> <JCHEM_PHYSIOLOGICAL_CHARGE>
0

> <ALOGPS_LOGP>
2.49

> <JCHEM_LOGP>
1.82

> <ALOGPS_LOGS>
-4.3

> <JCHEM_POLARIZABILITY>
33.85

> <JCHEM_POLAR_SURFACE_AREA>
110.45

> <JCHEM_REFRACTIVITY>
92.16

> <JCHEM_ROTATABLE_BOND_COUNT>
6

> <ALOGPS_SOLUBILITY>
1.77e-02 g/l __ 

$$$$
