
  Mrv0541 02231215462D          

 11 10  0  0  1  0            999 V2000
    2.6664   -2.3645    0.0000 C   0  0  0  0  0  0  0  0  0  0  0  0
    1.9520   -1.9520    0.0000 C   0  0  0  0  0  0  0  0  0  0  0  0
    1.2375   -2.3645    0.0000 C   0  0  0  0  0  0  0  0  0  0  0  0
    1.9520   -1.1270    0.0000 C   0  0  1  0  0  0  0  0  0  0  0  0
    1.2375   -0.7145    0.0000 N   0  0  0  0  0  0  0  0  0  0  0  0
    1.2375    0.1105    0.0000 C   0  0  0  0  0  0  0  0  0  0  0  0
    0.5230    0.5230    0.0000 N   0  0  0  0  0  0  0  0  0  0  0  0
    1.9520    0.5230    0.0000 O   0  0  0  0  0  0  0  0  0  0  0  0
    2.6664   -0.7145    0.0000 C   0  0  0  0  0  0  0  0  0  0  0  0
    2.6664    0.1105    0.0000 O   0  0  0  0  0  0  0  0  0  0  0  0
    3.3809   -1.1270    0.0000 O   0  0  0  0  0  0  0  0  0  0  0  0
  1  2  1  0  0  0  0
  2  3  1  0  0  0  0
  2  4  1  0  0  0  0
  4  5  1  1  0  0  0
  5  6  1  0  0  0  0
  6  7  1  0  0  0  0
  6  8  2  0  0  0  0
  4  9  1  0  0  0  0
  9 10  1  0  0  0  0
  9 11  2  0  0  0  0
M  END
> <DRUGBANK_ID>
DB01847

> <DRUG_GROUPS>
experimental

> <GENERIC_NAME>
N-Carbamyl-D-Valine

> <CHEMICAL_FORMULA>
C6H12N2O3

> <MOLECULAR_WEIGHT>
160.1711

> <EXACT_MASS>
160.08479226

> <IUPAC_NAME>
(2R)-2-(carbamoylamino)-3-methylbutanoic acid

> <IUPAC_TRADITIONAL_NAME>
N-carbamyl-D-valine

> <INCHI_IDENTIFIER>
InChI=1S/C6H12N2O3/c1-3(2)4(5(9)10)8-6(7)11/h3-4H,1-2H3,(H,9,10)(H3,7,8,11)/t4-/m1/s1

> <INCHI_KEY>
InChIKey=JDXMIYHOSFNZKO-SCSAIBSYSA-N

> <SMILES>
CC(C)[C@@H](NC(N)=O)C(O)=O

> <JCHEM_ACCEPTOR_COUNT>
3

> <JCHEM_DONOR_COUNT>
3

> <JCHEM_ACIDIC_PKA>
4.02

> <JCHEM_BASIC_PKA>
-2

> <JCHEM_PHYSIOLOGICAL_CHARGE>
-1

> <ALOGPS_LOGP>
-0.63

> <JCHEM_LOGP>
-0.21

> <ALOGPS_LOGS>
-0.87

> <JCHEM_POLARIZABILITY>
15.57

> <JCHEM_POLAR_SURFACE_AREA>
92.42

> <JCHEM_REFRACTIVITY>
37.61

> <JCHEM_ROTATABLE_BOND_COUNT>
3

> <ALOGPS_SOLUBILITY>
2.14e+01 g/l __ 

$$$$
