
  Mrv0541 02231215362D          

 22 22  0  0  1  0            999 V2000
   -1.7086    1.8448    0.0000 O   0  0  0  0  0  0  0  0  0  0  0  0
   -0.8881    1.7586    0.0000 C   0  0  1  0  0  0  0  0  0  0  0  0
   -0.3361    2.3716    0.0000 C   0  0  1  0  0  0  0  0  0  0  0  0
   -0.5076    3.1786    0.0000 O   0  0  0  0  0  0  0  0  0  0  0  0
    0.4176    2.0361    0.0000 C   0  0  2  0  0  0  0  0  0  0  0  0
    0.3314    1.2156    0.0000 O   0  0  0  0  0  0  0  0  0  0  0  0
   -0.4756    1.0441    0.0000 C   0  0  2  0  0  0  0  0  0  0  0  0
   -0.8112    0.2904    0.0000 C   0  0  0  0  0  0  0  0  0  0  0  0
   -1.6317    0.2042    0.0000 O   0  0  0  0  0  0  0  0  0  0  0  0
   -1.9672   -0.5495    0.0000 P   0  0  0  0  0  0  0  0  0  0  0  0
   -2.3028   -1.3032    0.0000 O   0  0  0  0  0  0  0  0  0  0  0  0
   -1.2135   -0.8851    0.0000 O   0  0  0  0  0  0  0  0  0  0  0  0
   -2.7209   -0.2139    0.0000 O   0  0  0  0  0  0  0  0  0  0  0  0
    1.1321    2.4486    0.0000 O   0  0  0  0  0  0  0  0  0  0  0  0
    1.8465    2.0361    0.0000 P   0  0  2  0  0  0  0  0  0  0  0  0
    1.4340    1.3216    0.0000 O   0  0  0  0  0  0  0  0  0  0  0  0
    2.2590    2.7506    0.0000 O   0  0  0  0  0  0  0  0  0  0  0  0
    2.5610    1.6236    0.0000 O   0  0  0  0  0  0  0  0  0  0  0  0
    3.2755    2.0361    0.0000 P   0  0  0  0  0  0  0  0  0  0  0  0
    3.9899    2.4486    0.0000 O   0  0  0  0  0  0  0  0  0  0  0  0
    3.6880    1.3216    0.0000 O   0  0  0  0  0  0  0  0  0  0  0  0
    2.8630    2.7506    0.0000 O   0  0  0  0  0  0  0  0  0  0  0  0
  2  1  1  1  0  0  0
  2  3  1  0  0  0  0
  3  4  1  1  0  0  0
  3  5  1  0  0  0  0
  5  6  1  0  0  0  0
  6  7  1  0  0  0  0
  2  7  1  0  0  0  0
  7  8  1  6  0  0  0
  8  9  1  0  0  0  0
  9 10  1  0  0  0  0
 10 11  1  0  0  0  0
 10 12  1  0  0  0  0
 10 13  2  0  0  0  0
  5 14  1  1  0  0  0
 15 14  1  6  0  0  0
 15 16  1  1  0  0  0
 15 17  2  0  0  0  0
 15 18  1  0  0  0  0
 18 19  1  0  0  0  0
 19 20  1  0  0  0  0
 19 21  1  0  0  0  0
 19 22  2  0  0  0  0
M  END
> <DRUGBANK_ID>
DB01632

> <DRUG_GROUPS>
experimental

> <GENERIC_NAME>
Alpha-Phosphoribosylpyrophosphoric Acid

> <SYNONYMS>


> <BRANDS>


> <CHEMICAL_FORMULA>
C5H13O14P3

> <MOLECULAR_WEIGHT>
390.0696

> <EXACT_MASS>
389.95181466

> <IUPAC_NAME>
[({[(2R,3R,4S,5R)-3,4-dihydroxy-5-[(phosphonooxy)methyl]oxolan-2-yl]oxy}(hydroxy)phosphoryl)oxy]phosphonic acid

> <IUPAC_TRADITIONAL_NAME>
{[(2R,3R,4S,5R)-3,4-dihydroxy-5-[(phosphonooxy)methyl]oxolan-2-yl]oxy(hydroxy)phosphoryl}oxyphosphonic acid

> <INCHI_IDENTIFIER>
InChI=1S/C5H13O14P3/c6-3-2(1-16-20(8,9)10)17-5(4(3)7)18-22(14,15)19-21(11,12)13/h2-7H,1H2,(H,14,15)(H2,8,9,10)(H2,11,12,13)/t2-,3-,4-,5-/m1/s1

> <INCHI_KEY>
InChIKey=PQGCEDQWHSBAJP-TXICZTDVSA-N

> <SMILES>
O[C@H]1[C@@H](O)[C@@H](O[P@](O)(=O)OP(O)(O)=O)O[C@@H]1COP(O)(O)=O

> <JCHEM_ACCEPTOR_COUNT>
11

> <JCHEM_DONOR_COUNT>
7

> <JCHEM_ACIDIC_PKA>
1.09

> <JCHEM_BASIC_PKA>
-3.7

> <JCHEM_PHYSIOLOGICAL_CHARGE>
-4

> <ALOGPS_LOGP>
-0.74

> <JCHEM_LOGP>
-3

> <ALOGPS_LOGS>
-1.5

> <JCHEM_POLARIZABILITY>
27.45

> <JCHEM_POLAR_SURFACE_AREA>
229.74

> <JCHEM_REFRACTIVITY>
62.58

> <JCHEM_ROTATABLE_BOND_COUNT>
7

> <ALOGPS_SOLUBILITY>
1.16e+01 g/l __ 

$$$$
