
  Mrv0541 02231215462D          

 10 10  0  0  1  0            999 V2000
    2.1434   -0.4125    0.0000 C   0  0  0  0  0  0  0  0  0  0  0  0
    1.4289    0.0000    0.0000 C   0  0  2  0  0  0  0  0  0  0  0  0
    0.7145   -0.4125    0.0000 C   0  0  0  0  0  0  0  0  0  0  0  0
    0.0000    0.0000    0.0000 C   0  0  2  0  0  0  0  0  0  0  0  0
   -0.7145   -0.4125    0.0000 O   0  0  0  0  0  0  0  0  0  0  0  0
    0.0000    0.8250    0.0000 C   0  0  1  0  0  0  0  0  0  0  0  0
   -0.7145    1.2375    0.0000 O   0  0  0  0  0  0  0  0  0  0  0  0
    0.7145    1.2375    0.0000 C   0  0  2  0  0  0  0  0  0  0  0  0
    0.7145    2.0625    0.0000 O   0  0  0  0  0  0  0  0  0  0  0  0
    1.4289    0.8250    0.0000 O   0  0  0  0  0  0  0  0  0  0  0  0
  2  1  1  6  0  0  0
  2  3  1  0  0  0  0
  3  4  1  0  0  0  0
  4  5  1  6  0  0  0
  4  6  1  0  0  0  0
  6  7  1  1  0  0  0
  6  8  1  0  0  0  0
  8  9  1  6  0  0  0
  8 10  1  0  0  0  0
  2 10  1  0  0  0  0
M  END
> <DRUGBANK_ID>
DB01841

> <DRUG_GROUPS>
experimental

> <GENERIC_NAME>
4,6-Dideoxyglucose

> <CHEMICAL_FORMULA>
C6H12O4

> <MOLECULAR_WEIGHT>
148.1571

> <EXACT_MASS>
148.073558872

> <IUPAC_NAME>
(2R,3R,4S,6R)-6-methyloxane-2,3,4-triol

> <IUPAC_TRADITIONAL_NAME>
4,6-dideoxyglucose

> <INCHI_IDENTIFIER>
InChI=1S/C6H12O4/c1-3-2-4(7)5(8)6(9)10-3/h3-9H,2H2,1H3/t3-,4+,5-,6-/m1/s1

> <INCHI_KEY>
InChIKey=BJBURJZEESAQPG-JGWLITMVSA-N

> <SMILES>
C[C@@H]1C[C@H](O)[C@@H](O)[C@H](O)O1

> <JCHEM_ACCEPTOR_COUNT>
4

> <JCHEM_DONOR_COUNT>
3

> <JCHEM_ACIDIC_PKA>
11.33

> <JCHEM_BASIC_PKA>
-3.3

> <JCHEM_PHYSIOLOGICAL_CHARGE>
0

> <ALOGPS_LOGP>
-1.8

> <JCHEM_LOGP>
-1.2

> <ALOGPS_LOGS>
0.79

> <JCHEM_POLARIZABILITY>
14.69

> <JCHEM_POLAR_SURFACE_AREA>
69.92

> <JCHEM_REFRACTIVITY>
33.28

> <JCHEM_ROTATABLE_BOND_COUNT>
0

> <ALOGPS_SOLUBILITY>
9.04e+02 g/l __ 

$$$$
