
  Mrv0541 02231215442D          

 14 13  0  0  1  0            999 V2000
    2.9980    1.7309    0.0000 C   0  0  0  0  0  0  0  0  0  0  0  0
    3.7125    2.1434    0.0000 C   0  0  0  0  0  0  0  0  0  0  0  0
    3.7125    2.9684    0.0000 C   0  0  0  0  0  0  0  0  0  0  0  0
    4.4270    1.7309    0.0000 O   0  0  0  0  0  0  0  0  0  0  0  0
    5.1414    2.1434    0.0000 P   0  0  2  0  0  0  0  0  0  0  0  0
    5.5539    1.4289    0.0000 O   0  0  0  0  0  0  0  0  0  0  0  0
    4.7289    2.8579    0.0000 O   0  0  0  0  0  0  0  0  0  0  0  0
    5.8559    2.5559    0.0000 O   0  0  0  0  0  0  0  0  0  0  0  0
    6.5704    2.1434    0.0000 C   0  0  0  0  0  0  0  0  0  0  0  0
    7.2849    2.5559    0.0000 C   0  0  1  0  0  0  0  0  0  0  0  0
    7.2849    3.3809    0.0000 N   0  0  0  0  0  0  0  0  0  0  0  0
    7.9993    2.1434    0.0000 C   0  0  0  0  0  0  0  0  0  0  0  0
    8.7138    2.5559    0.0000 O   0  0  0  0  0  0  0  0  0  0  0  0
    7.9993    1.3184    0.0000 O   0  0  0  0  0  0  0  0  0  0  0  0
  1  2  1  0  0  0  0
  2  3  1  0  0  0  0
  2  4  1  0  0  0  0
  5  4  1  6  0  0  0
  5  6  1  1  0  0  0
  5  7  2  0  0  0  0
  5  8  1  0  0  0  0
  8  9  1  0  0  0  0
  9 10  1  0  0  0  0
 10 11  1  1  0  0  0
 10 12  1  0  0  0  0
 12 13  1  0  0  0  0
 12 14  2  0  0  0  0
M  END
> <DRUGBANK_ID>
DB01805

> <DRUG_GROUPS>
experimental

> <GENERIC_NAME>
Monoisopropylphosphorylserine

> <CHEMICAL_FORMULA>
C6H14NO6P

> <MOLECULAR_WEIGHT>
227.1522

> <EXACT_MASS>
227.055873697

> <IUPAC_NAME>
(2R)-2-amino-3-{[hydroxy(propan-2-yloxy)phosphoryl]oxy}propanoic acid

> <IUPAC_TRADITIONAL_NAME>
(2R)-2-amino-3-{[hydroxy(isopropoxy)phosphoryl]oxy}propanoic acid

> <INCHI_IDENTIFIER>
InChI=1S/C6H14NO6P/c1-4(2)13-14(10,11)12-3-5(7)6(8)9/h4-5H,3,7H2,1-2H3,(H,8,9)(H,10,11)/t5-/m1/s1

> <INCHI_KEY>
InChIKey=DALHHSOTZKMXMV-RXMQYKEDSA-N

> <SMILES>
CC(C)O[P@](O)(=O)OC[C@@H](N)C(O)=O

> <JCHEM_ACCEPTOR_COUNT>
5

> <JCHEM_DONOR_COUNT>
3

> <JCHEM_ACIDIC_PKA>
1.67

> <JCHEM_BASIC_PKA>
9.38

> <JCHEM_PHYSIOLOGICAL_CHARGE>
-1

> <ALOGPS_LOGP>
-1.6

> <JCHEM_LOGP>
-2.1

> <ALOGPS_LOGS>
-0.93

> <JCHEM_POLARIZABILITY>
19.88

> <JCHEM_POLAR_SURFACE_AREA>
119.08

> <JCHEM_REFRACTIVITY>
46.56

> <JCHEM_ROTATABLE_BOND_COUNT>
6

> <ALOGPS_SOLUBILITY>
2.68e+01 g/l __ 

$$$$
