NON
  Mrv0541 02231215362D          

 12 11  0  0  0  0            999 V2000
    2.8556   -1.3762    0.0000 C   0  0  0  0  0  0  0  0  0  0  0  0
    2.1411   -1.7887    0.0000 C   0  0  0  0  0  0  0  0  0  0  0  0
    1.4266   -1.3762    0.0000 C   0  0  0  0  0  0  0  0  0  0  0  0
    0.7121   -1.7887    0.0000 C   0  0  0  0  0  0  0  0  0  0  0  0
   -0.0025   -1.3762    0.0000 C   0  0  0  0  0  0  0  0  0  0  0  0
   -0.7170   -1.7887    0.0000 C   0  0  0  0  0  0  0  0  0  0  0  0
   -1.4315   -1.3762    0.0000 C   0  0  0  0  0  0  0  0  0  0  0  0
   -2.1461   -1.7887    0.0000 C   0  0  0  0  0  0  0  0  0  0  0  0
   -2.8605   -1.3762    0.0000 C   0  0  0  0  0  0  0  0  0  0  0  0
    2.8556   -0.5511    0.0000 O   0  0  0  0  0  0  0  0  0  0  0  0
    3.5702   -1.7887    0.0000 O   0  0  0  0  0  0  0  0  0  0  0  0
    4.2847   -1.3762    0.0000 C   0  0  0  0  0  0  0  0  0  0  0  0
  1  2  1  0  0  0  0
  1 10  2  0  0  0  0
  1 11  1  0  0  0  0
  2  3  1  0  0  0  0
  3  4  1  0  0  0  0
  4  5  1  0  0  0  0
  5  6  1  0  0  0  0
  6  7  1  0  0  0  0
  7  8  1  0  0  0  0
  8  9  1  0  0  0  0
 11 12  1  0  0  0  0
M  END
> <DRUGBANK_ID>
DB01631

> <DRUG_GROUPS>
experimental

> <GENERIC_NAME>
Methyl Nonanoate (Ester)

> <CHEMICAL_FORMULA>
C10H20O2

> <MOLECULAR_WEIGHT>
172.2646

> <EXACT_MASS>
172.146329884

> <IUPAC_NAME>
methyl nonanoate

> <IUPAC_TRADITIONAL_NAME>
methyl nonanoate (ester)

> <INCHI_IDENTIFIER>
InChI=1S/C10H20O2/c1-3-4-5-6-7-8-9-10(11)12-2/h3-9H2,1-2H3

> <INCHI_KEY>
InChIKey=IJXHLVMUNBOGRR-UHFFFAOYSA-N

> <SMILES>
CCCCCCCCC(=O)OC

> <JCHEM_ACCEPTOR_COUNT>
1

> <JCHEM_DONOR_COUNT>
0

> <JCHEM_BASIC_PKA>
-7

> <JCHEM_PHYSIOLOGICAL_CHARGE>
0

> <ALOGPS_LOGP>
3.96

> <JCHEM_LOGP>
3.29

> <ALOGPS_LOGS>
-3.6

> <JCHEM_POLARIZABILITY>
21.67

> <JCHEM_POLAR_SURFACE_AREA>
26.3

> <JCHEM_REFRACTIVITY>
49.65

> <JCHEM_ROTATABLE_BOND_COUNT>
8

> <ALOGPS_SOLUBILITY>
4.55e-02 g/l __ 

$$$$
