2HC
  Mrv0541 02231215372D          

 12 12  0  0  0  0            999 V2000
    0.5995    0.8655    0.0000 C   0  0  0  0  0  0  0  0  0  0  0  0
    1.3140    1.2780    0.0000 C   0  0  0  0  0  0  0  0  0  0  0  0
    1.3140    2.1030    0.0000 O   0  0  0  0  0  0  0  0  0  0  0  0
    2.0284    0.8655    0.0000 O   0  0  0  0  0  0  0  0  0  0  0  0
    0.5995    0.0405    0.0000 C   0  0  0  0  0  0  0  0  0  0  0  0
   -0.1150   -0.3720    0.0000 C   0  0  0  0  0  0  0  0  0  0  0  0
   -0.1150   -1.1970    0.0000 C   0  0  0  0  0  0  0  0  0  0  0  0
   -0.8295   -1.6095    0.0000 C   0  0  0  0  0  0  0  0  0  0  0  0
   -1.5439   -1.1970    0.0000 C   0  0  0  0  0  0  0  0  0  0  0  0
   -1.5439   -0.3720    0.0000 C   0  0  0  0  0  0  0  0  0  0  0  0
   -0.8295    0.0405    0.0000 C   0  0  0  0  0  0  0  0  0  0  0  0
   -0.8295    0.8655    0.0000 O   0  0  0  0  0  0  0  0  0  0  0  0
  1  2  1  0  0  0  0
  1  5  2  0  0  0  0
  2  3  1  0  0  0  0
  2  4  2  0  0  0  0
  5  6  1  0  0  0  0
  6  7  2  0  0  0  0
  6 11  1  0  0  0  0
  7  8  1  0  0  0  0
  8  9  2  0  0  0  0
  9 10  1  0  0  0  0
 10 11  2  0  0  0  0
 11 12  1  0  0  0  0
M  END
> <DRUGBANK_ID>
DB01650

> <DRUG_GROUPS>
experimental

> <GENERIC_NAME>
trans-2-hydroxycinnamic acid

> <SYNONYMS>
(2E)-3-(2-Hydroxyphenyl)-2-propenoic acid; (2E)-3-(2-hydroxyphenyl)prop-2-enoic acid; (E)-3-(2-Hydroxyphenyl)-2-propenoic acid; (e)-o-hydroxycinnamic acid; O-hydroxy-trans-cinnamic acid; Trans-o-hydroxycinnamic acid

> <CHEMICAL_FORMULA>
C9H8O3

> <MOLECULAR_WEIGHT>
164.158

> <EXACT_MASS>
164.047344122

> <IUPAC_NAME>
(2E)-3-(2-hydroxyphenyl)prop-2-enoic acid

> <IUPAC_TRADITIONAL_NAME>
O-coumaric acid

> <INCHI_IDENTIFIER>
InChI=1S/C9H8O3/c10-8-4-2-1-3-7(8)5-6-9(11)12/h1-6,10H,(H,11,12)/b6-5+

> <INCHI_KEY>
InChIKey=PMOWTIHVNWZYFI-AATRIKPKSA-N

> <SMILES>
OC(=O)\C=C\C1=CC=CC=C1O

> <JCHEM_ACCEPTOR_COUNT>
3

> <JCHEM_DONOR_COUNT>
2

> <JCHEM_ACIDIC_PKA>
4.04

> <JCHEM_BASIC_PKA>
-6

> <JCHEM_PHYSIOLOGICAL_CHARGE>
-1

> <ALOGPS_LOGP>
1.9

> <JCHEM_LOGP>
1.83

> <ALOGPS_LOGS>
-2.1

> <JCHEM_POLARIZABILITY>
16.11

> <JCHEM_POLAR_SURFACE_AREA>
57.53

> <JCHEM_REFRACTIVITY>
45.04

> <JCHEM_ROTATABLE_BOND_COUNT>
2

> <ALOGPS_SOLUBILITY>
1.15e+00 g/l __ 

$$$$
