
  Mrv0541 02231215432D          

 11 11  0  0  0  0            999 V2000
    0.7145   -2.0625    0.0000 N   0  0  0  0  0  0  0  0  0  0  0  0
    0.7145   -1.2375    0.0000 S   0  0  0  0  0  0  0  0  0  0  0  0
    1.5395   -1.2375    0.0000 O   0  0  0  0  0  0  0  0  0  0  0  0
   -0.1105   -1.2375    0.0000 O   0  0  0  0  0  0  0  0  0  0  0  0
    0.7145   -0.4125    0.0000 C   0  0  0  0  0  0  0  0  0  0  0  0
    0.0000    0.0000    0.0000 C   0  0  0  0  0  0  0  0  0  0  0  0
    0.0000    0.8250    0.0000 C   0  0  0  0  0  0  0  0  0  0  0  0
    0.7145    1.2375    0.0000 C   0  0  0  0  0  0  0  0  0  0  0  0
    0.7145    2.0625    0.0000 F   0  0  0  0  0  0  0  0  0  0  0  0
    1.4289    0.8250    0.0000 C   0  0  0  0  0  0  0  0  0  0  0  0
    1.4289    0.0000    0.0000 C   0  0  0  0  0  0  0  0  0  0  0  0
  1  2  1  0  0  0  0
  2  3  2  0  0  0  0
  2  4  2  0  0  0  0
  2  5  1  0  0  0  0
  5  6  2  0  0  0  0
  6  7  1  0  0  0  0
  7  8  2  0  0  0  0
  8  9  1  0  0  0  0
  8 10  1  0  0  0  0
 10 11  2  0  0  0  0
  5 11  1  0  0  0  0
M  END
> <DRUGBANK_ID>
DB01784

> <DRUG_GROUPS>
experimental

> <GENERIC_NAME>
4-Flourobenzenesulfonamide

> <CHEMICAL_FORMULA>
C6H6FNO2S

> <MOLECULAR_WEIGHT>
175.181

> <EXACT_MASS>
175.010327336

> <IUPAC_NAME>
4-fluorobenzene-1-sulfonamide

> <IUPAC_TRADITIONAL_NAME>
4-fluorobenzenesulfonamide

> <INCHI_IDENTIFIER>
InChI=1S/C6H6FNO2S/c7-5-1-3-6(4-2-5)11(8,9)10/h1-4H,(H2,8,9,10)

> <INCHI_KEY>
InChIKey=LFLSATHZMYYIAQ-UHFFFAOYSA-N

> <SMILES>
NS(=O)(=O)C1=CC=C(F)C=C1

> <JCHEM_ACCEPTOR_COUNT>
2

> <JCHEM_DONOR_COUNT>
1

> <JCHEM_ACIDIC_PKA>
9.81

> <JCHEM_PHYSIOLOGICAL_CHARGE>
0

> <ALOGPS_LOGP>
0.62

> <JCHEM_LOGP>
0.72

> <ALOGPS_LOGS>
-1.9

> <JCHEM_POLARIZABILITY>
14.76

> <JCHEM_POLAR_SURFACE_AREA>
60.16

> <JCHEM_REFRACTIVITY>
38.43

> <JCHEM_ROTATABLE_BOND_COUNT>
1

> <ALOGPS_SOLUBILITY>
2.16e+00 g/l __ 

$$$$
