
  Mrv0541 02231215442D          

 14 14  0  0  1  0            999 V2000
    1.9268    1.5559    0.0000 N   0  0  0  0  0  0  0  0  0  0  0  0
    1.1198    1.7274    0.0000 C   0  0  0  0  0  0  0  0  0  0  0  0
    0.5678    1.1143    0.0000 C   0  0  2  0  0  0  0  0  0  0  0  0
    0.0157    1.7274    0.0000 O   0  0  0  0  0  0  0  0  0  0  0  0
    1.2352    0.6294    0.0000 N   0  0  0  0  0  0  0  0  0  0  0  0
    0.9803   -0.1553    0.0000 C   0  0  0  0  0  0  0  0  0  0  0  0
    1.4652   -0.8227    0.0000 O   0  0  0  0  0  0  0  0  0  0  0  0
    0.1553   -0.1553    0.0000 C   0  0  0  0  0  0  0  0  0  0  0  0
   -0.3297   -0.8227    0.0000 O   0  0  0  0  0  0  0  0  0  0  0  0
   -0.0997    0.6294    0.0000 N   0  3  0  0  0  0  0  0  0  0  0  0
   -0.8843    0.8843    0.0000 C   0  0  0  0  0  0  0  0  0  0  0  0
   -1.0558    1.6913    0.0000 C   0  0  0  0  0  0  0  0  0  0  0  0
   -1.8405    1.9462    0.0000 O   0  0  0  0  0  0  0  0  0  0  0  0
   -0.4427    2.2433    0.0000 O   0  0  0  0  0  0  0  0  0  0  0  0
  1  2  1  0  0  0  0
  3  2  1  6  0  0  0
  3  4  1  1  0  0  0
  3  5  1  0  0  0  0
  5  6  1  0  0  0  0
  6  7  2  0  0  0  0
  6  8  1  0  0  0  0
  8  9  1  0  0  0  0
  8 10  2  0  0  0  0
  3 10  1  0  0  0  0
 10 11  1  0  0  0  0
 11 12  1  0  0  0  0
 12 13  1  0  0  0  0
 12 14  2  0  0  0  0
M  END
> <DRUGBANK_ID>
DB01797

> <DRUG_GROUPS>
experimental

> <GENERIC_NAME>
(2r)-2-(Aminomethyl)-2,4-Dihydroxy-5-Oxo-3-(2-Oxoethyl)-2,5-Dihydro-1h-Imidazol-3-Ium

> <CHEMICAL_FORMULA>
C6H10N3O5

> <MOLECULAR_WEIGHT>
204.1607

> <EXACT_MASS>
204.062045445

> <IUPAC_NAME>
(2S)-2-(aminomethyl)-3-(carboxymethyl)-2,4-dihydroxy-5-oxo-2,5-dihydro-1H-imidazol-3-ium

> <IUPAC_TRADITIONAL_NAME>
(2S)-2-(aminomethyl)-1-(carboxymethyl)-2,5-dihydroxy-4-oxo-3H-imidazol-1-ium

> <INCHI_IDENTIFIER>
InChI=1S/C6H9N3O5/c7-2-6(14)8-4(12)5(13)9(6)1-3(10)11/h14H,1-2,7H2,(H2,8,10,11,12)/p+1/t6-/m0/s1

> <INCHI_KEY>
InChIKey=IMYOMVNQPPPJHU-LURJTMIESA-O

> <SMILES>
NC[C@]1(O)NC(=O)C(O)=[N+]1CC(O)=O

> <JCHEM_ACCEPTOR_COUNT>
6

> <JCHEM_DONOR_COUNT>
5

> <JCHEM_ACIDIC_PKA>
1.77

> <JCHEM_BASIC_PKA>
7.25

> <JCHEM_PHYSIOLOGICAL_CHARGE>
0

> <ALOGPS_LOGP>
-0.41

> <JCHEM_LOGP>
-7.4

> <ALOGPS_LOGS>
-1.3

> <JCHEM_POLARIZABILITY>
17.4

> <JCHEM_POLAR_SURFACE_AREA>
135.89

> <JCHEM_REFRACTIVITY>
53.66

> <JCHEM_ROTATABLE_BOND_COUNT>
3

> <ALOGPS_SOLUBILITY>
1.20e+01 g/l __ 

$$$$
