
  Mrv0541 02231215362D          

 22 23  0  0  1  0            999 V2000
   -1.4289   -1.6500    0.0000 N   0  0  0  0  0  0  0  0  0  0  0  0
   -0.7145   -1.2375    0.0000 C   0  0  1  0  0  0  0  0  0  0  0  0
    0.0000   -1.6500    0.0000 C   0  0  0  0  0  0  0  0  0  0  0  0
    0.0000   -2.4750    0.0000 C   0  0  1  0  0  0  0  0  0  0  0  0
    0.7145   -2.8875    0.0000 C   0  0  0  0  0  0  0  0  0  0  0  0
    0.7145   -3.7125    0.0000 C   0  0  0  0  0  0  0  0  0  0  0  0
    1.4289   -4.1250    0.0000 N   0  0  0  0  0  0  0  0  0  0  0  0
    1.4289   -4.9500    0.0000 N   0  0  0  0  0  0  0  0  0  0  0  0
    2.1434   -5.3625    0.0000 C   0  0  0  0  0  0  0  0  0  0  0  0
    2.8579   -4.9500    0.0000 C   0  0  0  0  0  0  0  0  0  0  0  0
    3.5724   -5.3625    0.0000 C   0  0  0  0  0  0  0  0  0  0  0  0
    3.5724   -6.1875    0.0000 C   0  0  0  0  0  0  0  0  0  0  0  0
    2.8579   -6.6000    0.0000 C   0  0  0  0  0  0  0  0  0  0  0  0
    2.1434   -6.1875    0.0000 N   0  0  0  0  0  0  0  0  0  0  0  0
    0.0000   -4.1250    0.0000 C   0  0  0  0  0  0  0  0  0  0  0  0
    0.0000   -4.9500    0.0000 O   0  0  0  0  0  0  0  0  0  0  0  0
   -0.7145   -3.7125    0.0000 C   0  0  0  0  0  0  0  0  0  0  0  0
   -0.7145   -2.8875    0.0000 C   0  0  0  0  0  0  0  0  0  0  0  0
   -1.4289   -2.4750    0.0000 O   0  0  0  0  0  0  0  0  0  0  0  0
   -0.7145   -0.4125    0.0000 C   0  0  0  0  0  0  0  0  0  0  0  0
   -1.4289    0.0000    0.0000 O   0  0  0  0  0  0  0  0  0  0  0  0
    0.0000    0.0000    0.0000 O   0  0  0  0  0  0  0  0  0  0  0  0
  2  1  1  6  0  0  0
  2  3  1  0  0  0  0
  4  3  1  1  0  0  0
  4  5  1  0  0  0  0
  5  6  2  0  0  0  0
  6  7  1  0  0  0  0
  7  8  1  0  0  0  0
  8  9  1  0  0  0  0
  9 10  2  0  0  0  0
 10 11  1  0  0  0  0
 11 12  2  0  0  0  0
 12 13  1  0  0  0  0
 13 14  2  0  0  0  0
  9 14  1  0  0  0  0
  6 15  1  0  0  0  0
 15 16  1  0  0  0  0
 15 17  2  0  0  0  0
 17 18  1  0  0  0  0
  4 18  1  0  0  0  0
 18 19  2  0  0  0  0
  2 20  1  0  0  0  0
 20 21  1  0  0  0  0
 20 22  2  0  0  0  0
M  END
> <DRUGBANK_ID>
DB01634

> <DRUG_GROUPS>
experimental

> <GENERIC_NAME>
2-Oxy-4-Hydroxy-5-(2-Hydrazinopyridine)Phenylalanine

> <CHEMICAL_FORMULA>
C14H16N4O4

> <MOLECULAR_WEIGHT>
304.3012

> <EXACT_MASS>
304.11715502

> <IUPAC_NAME>
(2S)-2-amino-3-[(1S)-4-hydroxy-6-oxo-3-[2-(pyridin-2-yl)hydrazin-1-yl]cyclohexa-2,4-dien-1-yl]propanoic acid

> <IUPAC_TRADITIONAL_NAME>
(2S)-2-amino-3-[(1S)-4-hydroxy-6-oxo-3-[2-(pyridin-2-yl)hydrazin-1-yl]cyclohexa-2,4-dien-1-yl]propanoic acid

> <INCHI_IDENTIFIER>
InChI=1S/C14H16N4O4/c15-9(14(21)22)5-8-6-10(12(20)7-11(8)19)17-18-13-3-1-2-4-16-13/h1-4,6-9,17,20H,5,15H2,(H,16,18)(H,21,22)/t8-,9-/m0/s1

> <INCHI_KEY>
InChIKey=AZUQIXJQZOMXAS-IUCAKERBSA-N

> <SMILES>
N[C@@H](C[C@H]1C=C(NNC2=CC=CC=N2)C(O)=CC1=O)C(O)=O

> <JCHEM_ACCEPTOR_COUNT>
8

> <JCHEM_DONOR_COUNT>
5

> <JCHEM_ACIDIC_PKA>
1.63

> <JCHEM_BASIC_PKA>
9.65

> <JCHEM_PHYSIOLOGICAL_CHARGE>
1

> <ALOGPS_LOGP>
-1.3

> <JCHEM_LOGP>
-5

> <ALOGPS_LOGS>
-2.4

> <JCHEM_POLARIZABILITY>
29.86

> <JCHEM_POLAR_SURFACE_AREA>
137.57

> <JCHEM_REFRACTIVITY>
92.82

> <JCHEM_ROTATABLE_BOND_COUNT>
6

> <ALOGPS_SOLUBILITY>
1.12e+00 g/l __ 

$$$$
