1241
  Mrv0541 02231215212D          

 18 18  0  0  0  0            999 V2000
    3.0791   -0.8745    0.0000 O   0  0  0  0  0  0  0  0  0  0  0  0
    5.2224    2.8381    0.0000 O   0  0  0  0  0  0  0  0  0  0  0  0
    3.7935    2.8381    0.0000 O   0  0  0  0  0  0  0  0  0  0  0  0
    4.5080    1.6005    0.0000 C   0  0  0  0  0  0  0  0  0  0  0  0
    4.5080    0.7755    0.0000 C   0  0  0  0  0  0  0  0  0  0  0  0
    3.7935    0.3630    0.0000 C   0  0  0  0  0  0  0  0  0  0  0  0
    5.3330    1.6005    0.0000 C   0  0  0  0  0  0  0  0  0  0  0  0
    3.6830    1.6005    0.0000 C   0  0  0  0  0  0  0  0  0  0  0  0
    3.7935   -0.4620    0.0000 C   0  0  0  0  0  0  0  0  0  0  0  0
    4.5080    2.4256    0.0000 C   0  0  0  0  0  0  0  0  0  0  0  0
    3.0791   -1.6995    0.0000 C   0  0  0  0  0  0  0  0  0  0  0  0
    2.3645   -2.1120    0.0000 C   0  0  0  0  0  0  0  0  0  0  0  0
    3.7935   -2.1120    0.0000 C   0  0  0  0  0  0  0  0  0  0  0  0
    3.7935   -2.9371    0.0000 C   0  0  0  0  0  0  0  0  0  0  0  0
    2.3645   -2.9371    0.0000 C   0  0  0  0  0  0  0  0  0  0  0  0
    3.0791   -3.3496    0.0000 C   0  0  0  0  0  0  0  0  0  0  0  0
    1.6500   -1.6995    0.0000 C   0  0  0  0  0  0  0  0  0  0  0  0
    4.5080   -3.3496    0.0000 C   0  0  0  0  0  0  0  0  0  0  0  0
  1  9  1  0  0  0  0
  1 11  1  0  0  0  0
  2 10  1  0  0  0  0
  3 10  2  0  0  0  0
  4  5  1  0  0  0  0
  4  7  1  0  0  0  0
  4  8  1  0  0  0  0
  4 10  1  0  0  0  0
  5  6  1  0  0  0  0
  6  9  1  0  0  0  0
 11 12  2  0  0  0  0
 11 13  1  0  0  0  0
 12 15  1  0  0  0  0
 12 17  1  0  0  0  0
 13 14  2  0  0  0  0
 14 16  1  0  0  0  0
 14 18  1  0  0  0  0
 15 16  2  0  0  0  0
M  END
> <DRUGBANK_ID>
DB01241

> <DRUG_GROUPS>
approved

> <GENERIC_NAME>
Gemfibrozil

> <SYNONYMS>
2,2-Dimethyl-5-(2,5-xylyloxy)valeric acid

> <BRANDS>
Gemlipid; Gen-Fibro; Genlip; Jezil; Lipur; Lopid

> <CHEMICAL_FORMULA>
C15H22O3

> <MOLECULAR_WEIGHT>
250.3334

> <EXACT_MASS>
250.15689457

> <IUPAC_NAME>
5-(2,5-dimethylphenoxy)-2,2-dimethylpentanoic acid

> <IUPAC_TRADITIONAL_NAME>
gemfibrozil

> <INCHI_IDENTIFIER>
InChI=1S/C15H22O3/c1-11-6-7-12(2)13(10-11)18-9-5-8-15(3,4)14(16)17/h6-7,10H,5,8-9H2,1-4H3,(H,16,17)

> <INCHI_KEY>
InChIKey=HEMJJKBWTPKOJG-UHFFFAOYSA-N

> <SMILES>
CC1=CC(OCCCC(C)(C)C(O)=O)=C(C)C=C1

> <JCHEM_ACCEPTOR_COUNT>
3

> <JCHEM_DONOR_COUNT>
1

> <JCHEM_ACIDIC_PKA>
4.42

> <JCHEM_BASIC_PKA>
-4.8

> <JCHEM_PHYSIOLOGICAL_CHARGE>
-1

> <ALOGPS_LOGP>
3.61

> <JCHEM_LOGP>
4.39

> <ALOGPS_LOGS>
-4

> <JCHEM_POLARIZABILITY>
28.9

> <JCHEM_POLAR_SURFACE_AREA>
46.53

> <JCHEM_REFRACTIVITY>
71.82

> <JCHEM_ROTATABLE_BOND_COUNT>
6

> <ALOGPS_SOLUBILITY>
2.78e-02 g/l __ 

$$$$
