1559
  Mrv0541 02231215332D          

 21 23  0  0  0  0            999 V2000
    4.5315    0.6150    0.0000 Cl   0  0  0  0  0  0  0  0  0  0  0  0
    4.3908   -1.4629    0.0000 S    0  0  0  0  0  0  0  0  0  0  0  0
    1.6500   -2.2011    0.0000 O    0  0  0  0  0  0  0  0  0  0  0  0
    2.9664   -1.7330    0.0000 N    0  0  0  0  0  0  0  0  0  0  0  0
    2.1538   -0.0668    0.0000 N    0  0  0  0  0  0  0  0  0  0  0  0
    3.6048   -0.3904    0.0000 C    0  0  0  0  0  0  0  0  0  0  0  0
    3.6089   -1.2154    0.0000 C    0  0  0  0  0  0  0  0  0  0  0  0
    2.9572    0.1207    0.0000 C    0  0  0  0  0  0  0  0  0  0  0  0
    4.8689   -0.7966    0.0000 C    0  0  0  0  0  0  0  0  0  0  0  0
    4.3842   -0.1351    0.0000 C    0  0  0  0  0  0  0  0  0  0  0  0
    5.6940   -0.7925    0.0000 C    0  0  0  0  0  0  0  0  0  0  0  0
    1.7995   -0.8120    0.0000 C    0  0  0  0  0  0  0  0  0  0  0  0
    2.1612   -1.5535    0.0000 C    0  0  0  0  0  0  0  0  0  0  0  0
    3.1368    0.9260    0.0000 C    0  0  0  0  0  0  0  0  0  0  0  0
    3.1541   -2.5364    0.0000 C    0  0  0  0  0  0  0  0  0  0  0  0
    6.1100   -1.5049    0.0000 C    0  0  0  0  0  0  0  0  0  0  0  0
    3.9240    1.1731    0.0000 C    0  0  0  0  0  0  0  0  0  0  0  0
    2.5292    1.4841    0.0000 C    0  0  0  0  0  0  0  0  0  0  0  0
    4.1035    1.9783    0.0000 C    0  0  0  0  0  0  0  0  0  0  0  0
    2.7088    2.2893    0.0000 C    0  0  0  0  0  0  0  0  0  0  0  0
    3.4959    2.5364    0.0000 C    0  0  0  0  0  0  0  0  0  0  0  0
  1 17  1  0  0  0  0
  2  7  1  0  0  0  0
  2  9  1  0  0  0  0
  3 13  2  0  0  0  0
  4  7  1  0  0  0  0
  4 13  1  0  0  0  0
  4 15  1  0  0  0  0
  5  8  2  0  0  0  0
  5 12  1  0  0  0  0
  6  7  2  0  0  0  0
  6  8  1  0  0  0  0
  6 10  1  0  0  0  0
  8 14  1  0  0  0  0
  9 10  2  0  0  0  0
  9 11  1  0  0  0  0
 11 16  1  0  0  0  0
 12 13  1  0  0  0  0
 14 17  1  0  0  0  0
 14 18  2  0  0  0  0
 17 19  2  0  0  0  0
 18 20  1  0  0  0  0
 19 21  1  0  0  0  0
 20 21  2  0  0  0  0
M  END
> <DRUGBANK_ID>
DB01559

> <DRUG_GROUPS>
approved; illicit

> <GENERIC_NAME>
Clotiazepam

> <SYNONYMS>
Clotiazepamum

> <BRANDS>


> <CHEMICAL_FORMULA>
C16H15ClN2OS

> <MOLECULAR_WEIGHT>
318.821

> <EXACT_MASS>
318.059361509

> <IUPAC_NAME>
5-(2-chlorophenyl)-7-ethyl-1-methyl-1H,2H,3H-thieno[2,3-e][1,4]diazepin-2-one

> <IUPAC_TRADITIONAL_NAME>
clotiazepam

> <INCHI_IDENTIFIER>
InChI=1S/C16H15ClN2OS/c1-3-10-8-12-15(11-6-4-5-7-13(11)17)18-9-14(20)19(2)16(12)21-10/h4-8H,3,9H2,1-2H3

> <INCHI_KEY>
InChIKey=CHBRHODLKOZEPZ-UHFFFAOYSA-N

> <SMILES>
CCC1=CC2=C(S1)N(C)C(=O)CN=C2C1=CC=CC=C1Cl

> <JCHEM_ACCEPTOR_COUNT>
2

> <JCHEM_DONOR_COUNT>
0

> <JCHEM_BASIC_PKA>
2.39

> <JCHEM_PHYSIOLOGICAL_CHARGE>
0

> <ALOGPS_LOGP>
3.58

> <JCHEM_LOGP>
4.11

> <ALOGPS_LOGS>
-4.8

> <JCHEM_POLARIZABILITY>
33.01

> <JCHEM_POLAR_SURFACE_AREA>
32.67

> <JCHEM_REFRACTIVITY>
85.66

> <JCHEM_ROTATABLE_BOND_COUNT>
2

> <ALOGPS_SOLUBILITY>
5.37e-03 g/l __ 

$$$$
