1351
  Mrv0541 02231215242D          

 16 16  0  0  0  0            999 V2000
    4.5080   -0.1915    0.0000 O   0  0  0  0  0  0  0  0  0  0  0  0
    1.6500   -0.1915    0.0000 O   0  0  0  0  0  0  0  0  0  0  0  0
    3.0791   -2.6665    0.0000 O   0  0  0  0  0  0  0  0  0  0  0  0
    3.7935   -1.4290    0.0000 N   0  0  0  0  0  0  0  0  0  0  0  0
    2.3645   -1.4290    0.0000 N   0  0  0  0  0  0  0  0  0  0  0  0
    3.0791   -0.1915    0.0000 C   0  0  0  0  0  0  0  0  0  0  0  0
    3.4916    0.5231    0.0000 C   0  0  0  0  0  0  0  0  0  0  0  0
    3.0791    1.2375    0.0000 C   0  0  0  0  0  0  0  0  0  0  0  0
    2.6665    0.5231    0.0000 C   0  0  0  0  0  0  0  0  0  0  0  0
    3.4916    1.9520    0.0000 C   0  0  0  0  0  0  0  0  0  0  0  0
    3.7935   -0.6040    0.0000 C   0  0  0  0  0  0  0  0  0  0  0  0
    2.3645   -0.6040    0.0000 C   0  0  0  0  0  0  0  0  0  0  0  0
    1.8415    0.5231    0.0000 C   0  0  0  0  0  0  0  0  0  0  0  0
    4.3166    1.9520    0.0000 C   0  0  0  0  0  0  0  0  0  0  0  0
    3.0791    2.6665    0.0000 C   0  0  0  0  0  0  0  0  0  0  0  0
    3.0791   -1.8415    0.0000 C   0  0  0  0  0  0  0  0  0  0  0  0
  1 11  2  0  0  0  0
  2 12  2  0  0  0  0
  3 16  2  0  0  0  0
  4 11  1  0  0  0  0
  4 16  1  0  0  0  0
  5 12  1  0  0  0  0
  5 16  1  0  0  0  0
  6  7  1  0  0  0  0
  6  9  1  0  0  0  0
  6 11  1  0  0  0  0
  6 12  1  0  0  0  0
  7  8  1  0  0  0  0
  8 10  1  0  0  0  0
  9 13  1  0  0  0  0
 10 14  1  0  0  0  0
 10 15  1  0  0  0  0
M  END
> <DRUGBANK_ID>
DB01351

> <DRUG_GROUPS>
approved; illicit

> <GENERIC_NAME>
Amobarbital

> <BRANDS>


> <CHEMICAL_FORMULA>
C11H18N2O3

> <MOLECULAR_WEIGHT>
226.2722

> <EXACT_MASS>
226.131742452

> <IUPAC_NAME>
5-ethyl-5-(3-methylbutyl)-1,3-diazinane-2,4,6-trione

> <IUPAC_TRADITIONAL_NAME>
amobarbital

> <INCHI_IDENTIFIER>
InChI=1S/C11H18N2O3/c1-4-11(6-5-7(2)3)8(14)12-10(16)13-9(11)15/h7H,4-6H2,1-3H3,(H2,12,13,14,15,16)

> <INCHI_KEY>
InChIKey=VIROVYVQCGLCII-UHFFFAOYSA-N

> <SMILES>
CCC1(CCC(C)C)C(=O)NC(=O)NC1=O

> <JCHEM_ACCEPTOR_COUNT>
3

> <JCHEM_DONOR_COUNT>
2

> <JCHEM_ACIDIC_PKA>
8.48

> <JCHEM_PHYSIOLOGICAL_CHARGE>
0

> <ALOGPS_LOGP>
1.87

> <JCHEM_LOGP>
1.89

> <ALOGPS_LOGS>
-2.4

> <JCHEM_POLARIZABILITY>
23.45

> <JCHEM_POLAR_SURFACE_AREA>
75.27

> <JCHEM_REFRACTIVITY>
58

> <JCHEM_ROTATABLE_BOND_COUNT>
4

> <ALOGPS_SOLUBILITY>
8.97e-01 g/l __ 

$$$$
