
  Mrv0541 02231215412D          

 47 46  0  0  1  0            999 V2000
   18.3711   11.4315    0.0000 C   0  0  0  0  0  0  0  0  0  0  0  0
   19.0855   11.8440    0.0000 C   0  0  0  0  0  0  0  0  0  0  0  0
   19.8000   11.4315    0.0000 C   0  0  0  0  0  0  0  0  0  0  0  0
   20.5145   11.8440    0.0000 C   0  0  0  0  0  0  0  0  0  0  0  0
   21.2289   11.4315    0.0000 C   0  0  0  0  0  0  0  0  0  0  0  0
   21.9434   11.8440    0.0000 C   0  0  0  0  0  0  0  0  0  0  0  0
   22.6579   11.4315    0.0000 C   0  0  0  0  0  0  0  0  0  0  0  0
   23.3724   11.8440    0.0000 C   0  0  0  0  0  0  0  0  0  0  0  0
   24.0868   11.4315    0.0000 C   0  0  0  0  0  0  0  0  0  0  0  0
   24.8013   11.8440    0.0000 C   0  0  0  0  0  0  0  0  0  0  0  0
   25.5158   11.4315    0.0000 C   0  0  0  0  0  0  0  0  0  0  0  0
   26.2302   11.8440    0.0000 C   0  0  0  0  0  0  0  0  0  0  0  0
   26.9447   11.4315    0.0000 C   0  0  0  0  0  0  0  0  0  0  0  0
   27.6592   11.8440    0.0000 C   0  0  0  0  0  0  0  0  0  0  0  0
   28.3737   11.4315    0.0000 C   0  0  0  0  0  0  0  0  0  0  0  0
   29.0881   11.8440    0.0000 C   0  0  0  0  0  0  0  0  0  0  0  0
   29.0881   12.6690    0.0000 O   0  0  0  0  0  0  0  0  0  0  0  0
   29.8026   11.4315    0.0000 O   0  0  0  0  0  0  0  0  0  0  0  0
   30.5171   11.8440    0.0000 C   0  0  0  0  0  0  0  0  0  0  0  0
   31.2315   11.4315    0.0000 C   0  0  1  0  0  0  0  0  0  0  0  0
   31.2315   10.6065    0.0000 C   0  0  0  0  0  0  0  0  0  0  0  0
   30.5171   10.1940    0.0000 O   0  0  0  0  0  0  0  0  0  0  0  0
   30.5171    9.3690    0.0000 P   0  0  2  0  0  0  0  0  0  0  0  0
   31.3421    9.3690    0.0000 O   0  0  0  0  0  0  0  0  0  0  0  0
   29.6921    9.3690    0.0000 O   0  0  0  0  0  0  0  0  0  0  0  0
   30.5171    8.5440    0.0000 O   0  0  0  0  0  0  0  0  0  0  0  0
   29.8026    8.1315    0.0000 C   0  0  0  0  0  0  0  0  0  0  0  0
   29.8026    7.3065    0.0000 C   0  0  0  0  0  0  0  0  0  0  0  0
   29.0881    6.8940    0.0000 N   0  0  0  0  0  0  0  0  0  0  0  0
   31.9460   11.8440    0.0000 O   0  0  0  0  0  0  0  0  0  0  0  0
   32.6605   11.4315    0.0000 C   0  0  0  0  0  0  0  0  0  0  0  0
   32.6605   10.6065    0.0000 O   0  0  0  0  0  0  0  0  0  0  0  0
   33.3749   11.8440    0.0000 C   0  0  0  0  0  0  0  0  0  0  0  0
   34.0894   11.4315    0.0000 C   0  0  0  0  0  0  0  0  0  0  0  0
   34.8039   11.8440    0.0000 C   0  0  0  0  0  0  0  0  0  0  0  0
   35.5184   11.4315    0.0000 C   0  0  0  0  0  0  0  0  0  0  0  0
   36.2328   11.8440    0.0000 C   0  0  0  0  0  0  0  0  0  0  0  0
   36.9473   11.4315    0.0000 C   0  0  0  0  0  0  0  0  0  0  0  0
   37.6618   11.8440    0.0000 C   0  0  0  0  0  0  0  0  0  0  0  0
   38.3762   11.4315    0.0000 C   0  0  0  0  0  0  0  0  0  0  0  0
   39.0907   11.8440    0.0000 C   0  0  0  0  0  0  0  0  0  0  0  0
   39.8052   11.4315    0.0000 C   0  0  0  0  0  0  0  0  0  0  0  0
   40.5197   11.8440    0.0000 C   0  0  0  0  0  0  0  0  0  0  0  0
   41.2341   11.4315    0.0000 C   0  0  0  0  0  0  0  0  0  0  0  0
   41.9486   11.8440    0.0000 C   0  0  0  0  0  0  0  0  0  0  0  0
   42.6631   11.4315    0.0000 C   0  0  0  0  0  0  0  0  0  0  0  0
   43.3775   11.8440    0.0000 C   0  0  0  0  0  0  0  0  0  0  0  0
  1  2  1  0  0  0  0
  2  3  1  0  0  0  0
  3  4  1  0  0  0  0
  4  5  1  0  0  0  0
  5  6  1  0  0  0  0
  6  7  1  0  0  0  0
  7  8  1  0  0  0  0
  8  9  1  0  0  0  0
  9 10  1  0  0  0  0
 10 11  1  0  0  0  0
 11 12  1  0  0  0  0
 12 13  1  0  0  0  0
 13 14  1  0  0  0  0
 14 15  1  0  0  0  0
 15 16  1  0  0  0  0
 16 17  2  0  0  0  0
 16 18  1  0  0  0  0
 18 19  1  0  0  0  0
 19 20  1  0  0  0  0
 20 21  1  0  0  0  0
 21 22  1  0  0  0  0
 23 22  1  1  0  0  0
 23 24  1  6  0  0  0
 23 25  2  0  0  0  0
 23 26  1  0  0  0  0
 26 27  1  0  0  0  0
 27 28  1  0  0  0  0
 28 29  1  0  0  0  0
 20 30  1  6  0  0  0
 30 31  1  0  0  0  0
 31 32  2  0  0  0  0
 31 33  1  0  0  0  0
 33 34  1  0  0  0  0
 34 35  1  0  0  0  0
 35 36  1  0  0  0  0
 36 37  1  0  0  0  0
 37 38  1  0  0  0  0
 38 39  1  0  0  0  0
 39 40  1  0  0  0  0
 40 41  1  0  0  0  0
 41 42  1  0  0  0  0
 42 43  1  0  0  0  0
 43 44  1  0  0  0  0
 44 45  1  0  0  0  0
 45 46  1  0  0  0  0
 46 47  1  0  0  0  0
M  END
> <DRUGBANK_ID>
DB01728

> <DRUG_GROUPS>
experimental

> <GENERIC_NAME>
3-[Aminoethylphosphoryl]-[1,2-Di-Palmitoyl]-Sn-Glycerol

> <CHEMICAL_FORMULA>
C37H74NO8P

> <MOLECULAR_WEIGHT>
691.9591

> <EXACT_MASS>
691.515204861

> <IUPAC_NAME>
(2-aminoethoxy)[(2S)-2,3-bis(hexadecanoyloxy)propoxy]phosphinic acid

> <IUPAC_TRADITIONAL_NAME>
2-aminoethoxy(2S)-2,3-bis(hexadecanoyloxy)propoxyphosphinic acid

> <INCHI_IDENTIFIER>
InChI=1S/C37H74NO8P/c1-3-5-7-9-11-13-15-17-19-21-23-25-27-29-36(39)43-33-35(34-45-47(41,42)44-32-31-38)46-37(40)30-28-26-24-22-20-18-16-14-12-10-8-6-4-2/h35H,3-34,38H2,1-2H3,(H,41,42)/t35-/m0/s1

> <INCHI_KEY>
InChIKey=SLKDGVPOSSLUAI-DHUJRADRSA-N

> <SMILES>
CCCCCCCCCCCCCCCC(=O)OC[C@@H](CO[P@](O)(=O)OCCN)OC(=O)CCCCCCCCCCCCCCC

> <JCHEM_ACCEPTOR_COUNT>
5

> <JCHEM_DONOR_COUNT>
2

> <JCHEM_ACIDIC_PKA>
1.87

> <JCHEM_BASIC_PKA>
10

> <JCHEM_PHYSIOLOGICAL_CHARGE>
0

> <ALOGPS_LOGP>
8.08

> <JCHEM_LOGP>
10.45

> <ALOGPS_LOGS>
-6.9

> <JCHEM_POLARIZABILITY>
86.11

> <JCHEM_POLAR_SURFACE_AREA>
134.38

> <JCHEM_REFRACTIVITY>
191

> <JCHEM_ROTATABLE_BOND_COUNT>
39

> <ALOGPS_SOLUBILITY>
9.45e-05 g/l __ 

$$$$
