
  Mrv0541 02231215532D          

  7  7  0  0  0  0            999 V2000
    0.7145    2.0625    0.0000 C   0  0  0  0  0  0  0  0  0  0  0  0
    0.7145    1.2375    0.0000 C   0  0  0  0  0  0  0  0  0  0  0  0
    1.4289    0.8250    0.0000 C   0  0  0  0  0  0  0  0  0  0  0  0
    1.4289    0.0000    0.0000 C   0  0  0  0  0  0  0  0  0  0  0  0
    0.7145   -0.4125    0.0000 C   0  0  0  0  0  0  0  0  0  0  0  0
    0.0000    0.0000    0.0000 N   0  0  0  0  0  0  0  0  0  0  0  0
    0.0000    0.8250    0.0000 C   0  0  0  0  0  0  0  0  0  0  0  0
  1  2  1  0  0  0  0
  2  3  2  0  0  0  0
  3  4  1  0  0  0  0
  4  5  2  0  0  0  0
  5  6  1  0  0  0  0
  6  7  2  0  0  0  0
  2  7  1  0  0  0  0
M  END
> <DRUGBANK_ID>
DB01996

> <DRUG_GROUPS>
experimental

> <GENERIC_NAME>
3-Methylpyridine

> <CHEMICAL_FORMULA>
C6H7N

> <MOLECULAR_WEIGHT>
93.1265

> <EXACT_MASS>
93.057849229

> <IUPAC_NAME>
3-methylpyridine

> <IUPAC_TRADITIONAL_NAME>
3-methylpyridine

> <INCHI_IDENTIFIER>
InChI=1S/C6H7N/c1-6-3-2-4-7-5-6/h2-5H,1H3

> <INCHI_KEY>
InChIKey=ITQTTZVARXURQS-UHFFFAOYSA-N

> <SMILES>
CC1=CC=CN=C1

> <JCHEM_ACCEPTOR_COUNT>
1

> <JCHEM_DONOR_COUNT>
0

> <JCHEM_BASIC_PKA>
5.63

> <JCHEM_PHYSIOLOGICAL_CHARGE>
0

> <ALOGPS_LOGP>
1.11

> <JCHEM_LOGP>
1.27

> <ALOGPS_LOGS>
0.33

> <JCHEM_POLARIZABILITY>
10.31

> <JCHEM_POLAR_SURFACE_AREA>
12.89

> <JCHEM_REFRACTIVITY>
28.94

> <JCHEM_ROTATABLE_BOND_COUNT>
0

> <ALOGPS_SOLUBILITY>
1.97e+02 g/l __ 

$$$$
