
  Mrv0541 02231215382D          

 12 11  0  0  1  0            999 V2000
    1.0461   -1.4289    0.0000 C   0  0  0  0  0  0  0  0  0  0  0  0
    1.7605   -1.0164    0.0000 C   0  0  0  0  0  0  0  0  0  0  0  0
    2.4750   -1.4289    0.0000 C   0  0  0  0  0  0  0  0  0  0  0  0
    3.1895   -1.0164    0.0000 O   0  0  0  0  0  0  0  0  0  0  0  0
    3.9039   -1.4289    0.0000 P   0  0  2  0  0  0  0  0  0  0  0  0
    3.4914   -2.1434    0.0000 O   0  0  0  0  0  0  0  0  0  0  0  0
    4.3164   -0.7145    0.0000 O   0  0  0  0  0  0  0  0  0  0  0  0
    4.6184   -1.8414    0.0000 O   0  0  0  0  0  0  0  0  0  0  0  0
    5.3329   -1.4289    0.0000 P   0  0  0  0  0  0  0  0  0  0  0  0
    6.0474   -1.0164    0.0000 O   0  0  0  0  0  0  0  0  0  0  0  0
    5.7454   -2.1434    0.0000 O   0  0  0  0  0  0  0  0  0  0  0  0
    4.9204   -0.7145    0.0000 O   0  0  0  0  0  0  0  0  0  0  0  0
  1  2  1  0  0  0  0
  2  3  1  0  0  0  0
  3  4  1  0  0  0  0
  5  4  1  6  0  0  0
  5  6  1  1  0  0  0
  5  7  2  0  0  0  0
  5  8  1  0  0  0  0
  8  9  1  0  0  0  0
  9 10  1  0  0  0  0
  9 11  1  0  0  0  0
  9 12  2  0  0  0  0
M  END
> <DRUGBANK_ID>
DB01679

> <DRUG_GROUPS>
experimental

> <GENERIC_NAME>
Propyl Trihydrogen Diphosphate

> <CHEMICAL_FORMULA>
C3H10O7P2

> <MOLECULAR_WEIGHT>
220.0548

> <EXACT_MASS>
219.990175698

> <IUPAC_NAME>
{[hydroxy(propoxy)phosphoryl]oxy}phosphonic acid

> <IUPAC_TRADITIONAL_NAME>
[hydroxy(propoxy)phosphoryl]oxyphosphonic acid

> <INCHI_IDENTIFIER>
InChI=1S/C3H10O7P2/c1-2-3-9-12(7,8)10-11(4,5)6/h2-3H2,1H3,(H,7,8)(H2,4,5,6)

> <INCHI_KEY>
InChIKey=JCWMAIAFQQTSAX-UHFFFAOYSA-N

> <SMILES>
CCCO[P@](O)(=O)OP(O)(O)=O

> <JCHEM_ACCEPTOR_COUNT>
5

> <JCHEM_DONOR_COUNT>
3

> <JCHEM_ACIDIC_PKA>
1.78

> <JCHEM_PHYSIOLOGICAL_CHARGE>
-2

> <ALOGPS_LOGP>
-0.07

> <JCHEM_LOGP>
-0.18

> <ALOGPS_LOGS>
-1.3

> <JCHEM_POLARIZABILITY>
16.02

> <JCHEM_POLAR_SURFACE_AREA>
113.29

> <JCHEM_REFRACTIVITY>
39.28

> <JCHEM_ROTATABLE_BOND_COUNT>
5

> <ALOGPS_SOLUBILITY>
1.19e+01 g/l __ 

$$$$
