
  Mrv0541 02231215522D          

 24 26  0  0  1  0            999 V2000
    2.7845    0.6979    0.0000 N   0  0  0  0  0  0  0  0  0  0  0  0
    2.0701    1.1104    0.0000 C   0  0  0  0  0  0  0  0  0  0  0  0
    1.3556    0.6979    0.0000 N   0  0  0  0  0  0  0  0  0  0  0  0
    0.6411    1.1104    0.0000 C   0  0  0  0  0  0  0  0  0  0  0  0
    0.6411    1.9354    0.0000 C   0  0  0  0  0  0  0  0  0  0  0  0
   -0.1435    2.1904    0.0000 N   0  0  0  0  0  0  0  0  0  0  0  0
   -0.6284    1.5229    0.0000 C   0  0  0  0  0  0  0  0  0  0  0  0
   -0.1435    0.8555    0.0000 N   0  0  0  0  0  0  0  0  0  0  0  0
   -0.3984    0.0709    0.0000 C   0  0  2  0  0  0  0  0  0  0  0  0
    0.0865   -0.5966    0.0000 O   0  0  0  0  0  0  0  0  0  0  0  0
   -0.3984   -1.2640    0.0000 C   0  0  1  0  0  0  0  0  0  0  0  0
   -0.1435   -2.0486    0.0000 C   0  0  0  0  0  0  0  0  0  0  0  0
   -0.6955   -2.6617    0.0000 O   0  0  0  0  0  0  0  0  0  0  0  0
   -0.4406   -3.4463    0.0000 P   0  0  0  0  0  0  0  0  0  0  0  0
   -0.1857   -4.2310    0.0000 O   0  0  0  0  0  0  0  0  0  0  0  0
   -1.2252   -3.7013    0.0000 O   0  0  0  0  0  0  0  0  0  0  0  0
    0.3440   -3.1914    0.0000 O   0  0  0  0  0  0  0  0  0  0  0  0
   -1.1831   -1.0091    0.0000 C   0  0  2  0  0  0  0  0  0  0  0  0
   -1.8505   -1.4940    0.0000 O   0  0  0  0  0  0  0  0  0  0  0  0
   -1.1831   -0.1841    0.0000 C   0  0  1  0  0  0  0  0  0  0  0  0
   -1.8505    0.3009    0.0000 O   0  0  0  0  0  0  0  0  0  0  0  0
    1.3556    2.3479    0.0000 C   0  0  0  0  0  0  0  0  0  0  0  0
    1.3556    3.1729    0.0000 O   0  0  0  0  0  0  0  0  0  0  0  0
    2.0701    1.9354    0.0000 N   0  0  0  0  0  0  0  0  0  0  0  0
  1  2  1  0  0  0  0
  2  3  2  0  0  0  0
  3  4  1  0  0  0  0
  4  5  2  0  0  0  0
  5  6  1  0  0  0  0
  6  7  2  0  0  0  0
  7  8  1  0  0  0  0
  4  8  1  0  0  0  0
  9  8  1  6  0  0  0
  9 10  1  0  0  0  0
 10 11  1  0  0  0  0
 11 12  1  1  0  0  0
 12 13  1  0  0  0  0
 13 14  1  0  0  0  0
 14 15  1  0  0  0  0
 14 16  1  0  0  0  0
 14 17  2  0  0  0  0
 11 18  1  0  0  0  0
 18 19  1  6  0  0  0
 18 20  1  0  0  0  0
  9 20  1  0  0  0  0
 20 21  1  1  0  0  0
  5 22  1  0  0  0  0
 22 23  2  0  0  0  0
 22 24  1  0  0  0  0
  2 24  1  0  0  0  0
M  END
> <DRUGBANK_ID>
DB01972

> <DRUG_GROUPS>
experimental

> <GENERIC_NAME>
Guanosine-5'-Monophosphate

> <CHEMICAL_FORMULA>
C10H14N5O8P

> <MOLECULAR_WEIGHT>
363.2206

> <EXACT_MASS>
363.057998961

> <IUPAC_NAME>
{[(2S,3R,4R,5R)-5-(2-amino-6-oxo-6,9-dihydro-1H-purin-9-yl)-3,4-dihydroxyoxolan-2-yl]methoxy}phosphonic acid

> <IUPAC_TRADITIONAL_NAME>
[(2S,3R,4R,5R)-5-(2-amino-6-oxo-1H-purin-9-yl)-3,4-dihydroxyoxolan-2-yl]methoxyphosphonic acid

> <INCHI_IDENTIFIER>
InChI=1S/C10H14N5O8P/c11-10-13-7-4(8(18)14-10)12-2-15(7)9-6(17)5(16)3(23-9)1-22-24(19,20)21/h2-3,5-6,9,16-17H,1H2,(H2,19,20,21)(H3,11,13,14,18)/t3-,5-,6+,9+/m0/s1

> <INCHI_KEY>
InChIKey=RQFCJASXJCIDSX-BZKDHIKHSA-N

> <SMILES>
NC1=NC2=C(N=CN2[C@@H]2O[C@@H](COP(O)(O)=O)[C@H](O)[C@H]2O)C(=O)N1

> <JCHEM_ACCEPTOR_COUNT>
10

> <JCHEM_DONOR_COUNT>
6

> <JCHEM_ACIDIC_PKA>
1.05

> <JCHEM_BASIC_PKA>
1.73

> <JCHEM_PHYSIOLOGICAL_CHARGE>
-2

> <ALOGPS_LOGP>
-2

> <JCHEM_LOGP>
-2.9

> <ALOGPS_LOGS>
-2

> <JCHEM_POLARIZABILITY>
30.65

> <JCHEM_POLAR_SURFACE_AREA>
201.75

> <JCHEM_REFRACTIVITY>
75.49

> <JCHEM_ROTATABLE_BOND_COUNT>
4

> <ALOGPS_SOLUBILITY>
3.56e+00 g/l __ 

$$$$
