
  Mrv0541 02231215462D          

 10  9  0  0  1  0            999 V2000
    1.7605    1.8414    0.0000 C   0  0  0  0  0  0  0  0  0  0  0  0
    2.4750    1.4289    0.0000 C   0  0  0  0  0  0  0  0  0  0  0  0
    2.4750    0.6039    0.0000 O   0  0  0  0  0  0  0  0  0  0  0  0
    3.1895    1.8414    0.0000 O   0  0  0  0  0  0  0  0  0  0  0  0
    3.9039    1.4289    0.0000 C   0  0  0  0  0  0  0  0  0  0  0  0
    4.6184    1.8414    0.0000 C   0  0  1  0  0  0  0  0  0  0  0  0
    4.6184    2.6664    0.0000 N   0  0  0  0  0  0  0  0  0  0  0  0
    5.3329    1.4289    0.0000 C   0  0  0  0  0  0  0  0  0  0  0  0
    6.0474    1.8414    0.0000 O   0  0  0  0  0  0  0  0  0  0  0  0
    5.3329    0.6039    0.0000 O   0  0  0  0  0  0  0  0  0  0  0  0
  1  2  1  0  0  0  0
  2  3  2  0  0  0  0
  2  4  1  0  0  0  0
  4  5  1  0  0  0  0
  5  6  1  0  0  0  0
  6  7  1  1  0  0  0
  6  8  1  0  0  0  0
  8  9  1  0  0  0  0
  8 10  2  0  0  0  0
M  END
> <DRUGBANK_ID>
DB01837

> <DRUG_GROUPS>
experimental

> <GENERIC_NAME>
O-Acetylserine

> <CHEMICAL_FORMULA>
C5H9NO4

> <MOLECULAR_WEIGHT>
147.1293

> <EXACT_MASS>
147.053157781

> <IUPAC_NAME>
(2R)-3-(acetyloxy)-2-aminopropanoic acid

> <IUPAC_TRADITIONAL_NAME>
O-acetylserine

> <INCHI_IDENTIFIER>
InChI=1S/C5H9NO4/c1-3(7)10-2-4(6)5(8)9/h4H,2,6H2,1H3,(H,8,9)/t4-/m1/s1

> <INCHI_KEY>
InChIKey=VZXPDPZARILFQX-SCSAIBSYSA-N

> <SMILES>
CC(=O)OC[C@@H](N)C(O)=O

> <JCHEM_ACCEPTOR_COUNT>
4

> <JCHEM_DONOR_COUNT>
2

> <JCHEM_ACIDIC_PKA>
1.86

> <JCHEM_BASIC_PKA>
8.6

> <JCHEM_PHYSIOLOGICAL_CHARGE>
0

> <ALOGPS_LOGP>
-2.9

> <JCHEM_LOGP>
-3.4

> <ALOGPS_LOGS>
0.07

> <JCHEM_POLARIZABILITY>
13.54

> <JCHEM_POLAR_SURFACE_AREA>
89.62

> <JCHEM_REFRACTIVITY>
31.19

> <JCHEM_ROTATABLE_BOND_COUNT>
4

> <ALOGPS_SOLUBILITY>
1.74e+02 g/l __ 

$$$$
