
  Mrv0541 02231215472D          

 21 20  0  0  1  0            999 V2000
   12.6177    4.8099    0.0000 C   0  0  0  0  0  0  0  0  0  0  0  0
   12.6177    3.9849    0.0000 C   0  0  1  0  0  0  0  0  0  0  0  0
   11.9033    3.5724    0.0000 N   0  0  0  0  0  0  0  0  0  0  0  0
   11.1888    3.9849    0.0000 C   0  0  0  0  0  0  0  0  0  0  0  0
   11.1888    4.8099    0.0000 O   0  0  0  0  0  0  0  0  0  0  0  0
   10.4743    3.5724    0.0000 C   0  0  0  0  0  0  0  0  0  0  0  0
    9.7599    3.9849    0.0000 C   0  0  0  0  0  0  0  0  0  0  0  0
    9.0454    3.5724    0.0000 C   0  0  0  0  0  0  0  0  0  0  0  0
    8.3309    3.9849    0.0000 C   0  0  0  0  0  0  0  0  0  0  0  0
    7.6164    3.5724    0.0000 C   0  0  1  0  0  0  0  0  0  0  0  0
    6.9020    3.9849    0.0000 N   0  0  0  0  0  0  0  0  0  0  0  0
    6.1875    3.5724    0.0000 C   0  0  0  0  0  0  0  0  0  0  0  0
    6.1875    2.7474    0.0000 O   0  0  0  0  0  0  0  0  0  0  0  0
    5.4730    3.9849    0.0000 C   0  0  0  0  0  0  0  0  0  0  0  0
    4.7586    3.5724    0.0000 N   0  3  0  0  0  0  0  0  0  0  0  0
    7.6164    2.7474    0.0000 C   0  0  0  0  0  0  0  0  0  0  0  0
    6.9020    2.3349    0.0000 O   0  5  0  0  0  0  0  0  0  0  0  0
    8.3309    2.3349    0.0000 O   0  0  0  0  0  0  0  0  0  0  0  0
   13.3322    3.5724    0.0000 P   0  0  2  0  0  0  0  0  0  0  0  0
   14.0467    3.9849    0.0000 O   0  5  0  0  0  0  0  0  0  0  0  0
   13.3322    2.7474    0.0000 O   0  0  0  0  0  0  0  0  0  0  0  0
  2  1  1  6  0  0  0
  2  3  1  0  0  0  0
  3  4  1  0  0  0  0
  4  5  2  0  0  0  0
  4  6  1  0  0  0  0
  6  7  1  0  0  0  0
  7  8  1  0  0  0  0
  8  9  1  0  0  0  0
  9 10  1  0  0  0  0
 10 11  1  6  0  0  0
 11 12  1  0  0  0  0
 12 13  2  0  0  0  0
 12 14  1  0  0  0  0
 14 15  1  0  0  0  0
 10 16  1  0  0  0  0
 16 17  1  0  0  0  0
 16 18  2  0  0  0  0
  2 19  1  0  0  0  0
 19 20  1  6  0  0  0
 19 21  2  0  0  0  0
M  END
> <DRUGBANK_ID>
DB01868

> <DRUG_GROUPS>
experimental

> <GENERIC_NAME>
Glycyl-L-a-Aminopimelyl-E-(D-2-Aminoethyl)Phosphonate

> <CHEMICAL_FORMULA>
C11H21N3O6P

> <MOLECULAR_WEIGHT>
322.2747

> <EXACT_MASS>
322.116796931

> <IUPAC_NAME>
(2R)-2-(2-azaniumylacetamido)-6-{[(1S)-1-phosphinatoethyl]carbamoyl}hexanoate

> <IUPAC_TRADITIONAL_NAME>
(2R)-2-(2-aminioacetamido)-6-{[(1S)-1-phosphinatoethyl]carbamoyl}hexanoate

> <INCHI_IDENTIFIER>
InChI=1S/C11H22N3O6P/c1-7(21(19)20)13-9(15)5-3-2-4-8(11(17)18)14-10(16)6-12/h7-8,21H,2-6,12H2,1H3,(H,13,15)(H,14,16)(H,17,18)(H,19,20)/p-1/t7-,8+/m0/s1

> <INCHI_KEY>
InChIKey=KXPXHSULSFESIR-JGVFFNPUSA-M

> <SMILES>
C[C@@H](NC(=O)CCCC[C@@H](NC(=O)C[NH3+])C([O-])=O)P([O-])=O

> <JCHEM_ACCEPTOR_COUNT>
6

> <JCHEM_DONOR_COUNT>
3

> <JCHEM_ACIDIC_PKA>
1.87

> <JCHEM_BASIC_PKA>
8.14

> <JCHEM_PHYSIOLOGICAL_CHARGE>
-1

> <ALOGPS_LOGP>
-1.3

> <JCHEM_LOGP>
-4

> <ALOGPS_LOGS>
-2

> <JCHEM_POLARIZABILITY>
30.41

> <JCHEM_POLAR_SURFACE_AREA>
166.1

> <JCHEM_REFRACTIVITY>
94.5

> <JCHEM_ROTATABLE_BOND_COUNT>
10

> <ALOGPS_SOLUBILITY>
3.71e+00 g/l __ 

$$$$
