1035
  Mrv0541 02231215112D          

 17 17  0  0  0  0            999 V2000
    1.6500    0.3341    0.0000 O   0  0  0  0  0  0  0  0  0  0  0  0
    3.7935    2.3967    0.0000 N   0  0  0  0  0  0  0  0  0  0  0  0
    3.0791    0.3341    0.0000 N   0  0  0  0  0  0  0  0  0  0  0  0
    2.3645   -3.3784    0.0000 N   0  0  0  0  0  0  0  0  0  0  0  0
    3.7935    1.5717    0.0000 C   0  0  0  0  0  0  0  0  0  0  0  0
    4.5080    2.8092    0.0000 C   0  0  0  0  0  0  0  0  0  0  0  0
    3.0791    2.8092    0.0000 C   0  0  0  0  0  0  0  0  0  0  0  0
    3.0791    1.1592    0.0000 C   0  0  0  0  0  0  0  0  0  0  0  0
    4.5080    3.6342    0.0000 C   0  0  0  0  0  0  0  0  0  0  0  0
    3.0791    3.6342    0.0000 C   0  0  0  0  0  0  0  0  0  0  0  0
    2.3645   -0.0784    0.0000 C   0  0  0  0  0  0  0  0  0  0  0  0
    2.3645   -0.9034    0.0000 C   0  0  0  0  0  0  0  0  0  0  0  0
    3.0791   -1.3159    0.0000 C   0  0  0  0  0  0  0  0  0  0  0  0
    1.6500   -1.3159    0.0000 C   0  0  0  0  0  0  0  0  0  0  0  0
    3.0791   -2.1409    0.0000 C   0  0  0  0  0  0  0  0  0  0  0  0
    1.6500   -2.1409    0.0000 C   0  0  0  0  0  0  0  0  0  0  0  0
    2.3645   -2.5534    0.0000 C   0  0  0  0  0  0  0  0  0  0  0  0
  1 11  2  0  0  0  0
  2  5  1  0  0  0  0
  2  6  1  0  0  0  0
  2  7  1  0  0  0  0
  3  8  1  0  0  0  0
  3 11  1  0  0  0  0
  4 17  1  0  0  0  0
  5  8  1  0  0  0  0
  6  9  1  0  0  0  0
  7 10  1  0  0  0  0
 11 12  1  0  0  0  0
 12 13  2  0  0  0  0
 12 14  1  0  0  0  0
 13 15  1  0  0  0  0
 14 16  2  0  0  0  0
 15 17  2  0  0  0  0
 16 17  1  0  0  0  0
M  END
> <DRUGBANK_ID>
DB01035

> <DRUG_GROUPS>
approved

> <GENERIC_NAME>
Procainamide

> <SYNONYMS>
p-Amino-N-(2-diethylaminoethyl)benzamide; p-Aminobenzoic diethylaminoethylamide

> <SALTS>
Procainamide Hydrochloride

> <BRANDS>
Biocoryl; Procan; Procanbid; Pronestyl

> <CHEMICAL_FORMULA>
C13H21N3O

> <MOLECULAR_WEIGHT>
235.3253

> <EXACT_MASS>
235.168462309

> <IUPAC_NAME>
4-amino-N-[2-(diethylamino)ethyl]benzamide

> <IUPAC_TRADITIONAL_NAME>
procainamide

> <INCHI_IDENTIFIER>
InChI=1S/C13H21N3O/c1-3-16(4-2)10-9-15-13(17)11-5-7-12(14)8-6-11/h5-8H,3-4,9-10,14H2,1-2H3,(H,15,17)

> <INCHI_KEY>
InChIKey=REQCZEXYDRLIBE-UHFFFAOYSA-N

> <SMILES>
CCN(CC)CCNC(=O)C1=CC=C(N)C=C1

> <JCHEM_ACCEPTOR_COUNT>
3

> <JCHEM_DONOR_COUNT>
2

> <JCHEM_ACIDIC_PKA>
15.75

> <JCHEM_BASIC_PKA>
9.04

> <JCHEM_PHYSIOLOGICAL_CHARGE>
1

> <ALOGPS_LOGP>
1.42

> <JCHEM_LOGP>
0.95

> <ALOGPS_LOGS>
-1.9

> <JCHEM_POLARIZABILITY>
27.69

> <JCHEM_POLAR_SURFACE_AREA>
58.36

> <JCHEM_REFRACTIVITY>
72.25

> <JCHEM_ROTATABLE_BOND_COUNT>
6

> <ALOGPS_SOLUBILITY>
3.02e+00 g/l __ 

$$$$
