BP3
  Mrv0541 02231215502D          

 15 16  0  0  0  0            999 V2000
   -0.3924   -0.2285    0.0000 C    0  0  0  0  0  0  0  0  0  0  0  0
    0.3221   -0.6410    0.0000 C    0  0  0  0  0  0  0  0  0  0  0  0
    1.0366   -0.2285    0.0000 O    0  0  0  0  0  0  0  0  0  0  0  0
    0.3221   -1.4660    0.0000 C    0  0  0  0  0  0  0  0  0  0  0  0
    1.0366   -1.8785    0.0000 O    0  0  0  0  0  0  0  0  0  0  0  0
   -0.3924   -1.8785    0.0000 C    0  0  0  0  0  0  0  0  0  0  0  0
   -1.1069   -1.4660    0.0000 C    0  0  0  0  0  0  0  0  0  0  0  0
   -1.1069   -0.6410    0.0000 C    0  0  0  0  0  0  0  0  0  0  0  0
   -0.3924    0.5965    0.0000 C    0  0  0  0  0  0  0  0  0  0  0  0
   -1.1069    1.0090    0.0000 C    0  0  0  0  0  0  0  0  0  0  0  0
   -1.1069    1.8340    0.0000 C    0  0  0  0  0  0  0  0  0  0  0  0
   -0.3924    2.2465    0.0000 C    0  0  0  0  0  0  0  0  0  0  0  0
    0.3221    1.8340    0.0000 C    0  0  0  0  0  0  0  0  0  0  0  0
    0.3221    1.0090    0.0000 C    0  0  0  0  0  0  0  0  0  0  0  0
   -1.8213    0.5965    0.0000 Cl   0  0  0  0  0  0  0  0  0  0  0  0
  1  2  2  0  0  0  0
  1  8  1  0  0  0  0
  1  9  1  0  0  0  0
  2  3  1  0  0  0  0
  2  4  1  0  0  0  0
  4  5  1  0  0  0  0
  4  6  2  0  0  0  0
  6  7  1  0  0  0  0
  7  8  2  0  0  0  0
  9 10  2  0  0  0  0
  9 14  1  0  0  0  0
 10 11  1  0  0  0  0
 10 15  1  0  0  0  0
 11 12  2  0  0  0  0
 12 13  1  0  0  0  0
 13 14  2  0  0  0  0
M  END
> <DRUGBANK_ID>
DB01925

> <DRUG_GROUPS>
experimental

> <GENERIC_NAME>
2'-Chloro-Biphenyl-2,3-Diol

> <CHEMICAL_FORMULA>
C12H9ClO2

> <MOLECULAR_WEIGHT>
220.652

> <EXACT_MASS>
220.029107239

> <IUPAC_NAME>
3-(2-chlorophenyl)benzene-1,2-diol

> <IUPAC_TRADITIONAL_NAME>
3-(2-chlorophenyl)benzene-1,2-diol

> <INCHI_IDENTIFIER>
InChI=1S/C12H9ClO2/c13-10-6-2-1-4-8(10)9-5-3-7-11(14)12(9)15/h1-7,14-15H

> <INCHI_KEY>
InChIKey=SNGROCQMAKYWRE-UHFFFAOYSA-N

> <SMILES>
OC1=CC=CC(=C1O)C1=C(Cl)C=CC=C1

> <JCHEM_ACCEPTOR_COUNT>
2

> <JCHEM_DONOR_COUNT>
2

> <JCHEM_ACIDIC_PKA>
9.03

> <JCHEM_BASIC_PKA>
-6.3

> <JCHEM_PHYSIOLOGICAL_CHARGE>
0

> <ALOGPS_LOGP>
3.23

> <JCHEM_LOGP>
3.62

> <ALOGPS_LOGS>
-3.3

> <JCHEM_POLARIZABILITY>
21.64

> <JCHEM_POLAR_SURFACE_AREA>
40.46

> <JCHEM_REFRACTIVITY>
59.96

> <JCHEM_ROTATABLE_BOND_COUNT>
1

> <ALOGPS_SOLUBILITY>
1.05e-01 g/l __ 

$$$$
