1213
  Mrv0541 02231215192D          

  6  6  0  0  0  0            999 V2000
    2.3176   -0.7128    0.0000 N   0  0  0  0  0  0  0  0  0  0  0  0
    1.6501   -0.2278    0.0000 N   0  0  0  0  0  0  0  0  0  0  0  0
    2.7301    0.5568    0.0000 C   0  0  0  0  0  0  0  0  0  0  0  0
    2.9850   -0.2278    0.0000 C   0  0  0  0  0  0  0  0  0  0  0  0
    3.2150    1.2243    0.0000 C   0  0  0  0  0  0  0  0  0  0  0  0
    1.9050    0.5568    0.0000 C   0  0  0  0  0  0  0  0  0  0  0  0
  1  2  1  0  0  0  0
  1  4  1  0  0  0  0
  2  6  2  0  0  0  0
  3  4  2  0  0  0  0
  3  5  1  0  0  0  0
  3  6  1  0  0  0  0
M  END
> <DRUGBANK_ID>
DB01213

> <DRUG_GROUPS>
approved

> <GENERIC_NAME>
Fomepizole

> <SYNONYMS>
4-methylpyrazole; Fomepizol; Fomepizole; Fomepizolum

> <BRANDS>
Antizol

> <CHEMICAL_FORMULA>
C4H6N2

> <MOLECULAR_WEIGHT>
82.1038

> <EXACT_MASS>
82.053098202

> <IUPAC_NAME>
4-methyl-1H-pyrazole

> <IUPAC_TRADITIONAL_NAME>
fomepizole

> <INCHI_IDENTIFIER>
InChI=1S/C4H6N2/c1-4-2-5-6-3-4/h2-3H,1H3,(H,5,6)

> <INCHI_KEY>
InChIKey=RIKMMFOAQPJVMX-UHFFFAOYSA-N

> <SMILES>
CC1=CNN=C1

> <JCHEM_ACCEPTOR_COUNT>
1

> <JCHEM_DONOR_COUNT>
1

> <JCHEM_ACIDIC_PKA>
15.82

> <JCHEM_BASIC_PKA>
2.13

> <JCHEM_PHYSIOLOGICAL_CHARGE>
0

> <ALOGPS_LOGP>
0.41

> <JCHEM_LOGP>
0.79

> <ALOGPS_LOGS>
0.83

> <JCHEM_POLARIZABILITY>
8.58

> <JCHEM_POLAR_SURFACE_AREA>
28.68

> <JCHEM_REFRACTIVITY>
24.79

> <JCHEM_ROTATABLE_BOND_COUNT>
0

> <ALOGPS_SOLUBILITY>
5.59e+02 g/l __ 

$$$$
