1380
  Mrv0541 02231215242D          

 32 35  0  0  1  0            999 V2000
    6.6263    1.5366    0.0000 O   0  0  0  0  0  0  0  0  0  0  0  0
    3.9559    0.9126    0.0000 O   0  0  0  0  0  0  0  0  0  0  0  0
    7.4634    2.0559    0.0000 O   0  0  0  0  0  0  0  0  0  0  0  0
    8.9696    1.3822    0.0000 O   0  0  0  0  0  0  0  0  0  0  0  0
    1.6500   -2.0181    0.0000 O   0  0  0  0  0  0  0  0  0  0  0  0
    9.8075    0.2246    0.0000 O   0  0  0  0  0  0  0  0  0  0  0  0
    6.0993   -0.3249    0.0000 C   0  0  2  0  0  0  0  0  0  0  0  0
    6.0993    0.5001    0.0000 C   0  0  1  0  0  0  0  0  0  0  0  0
    5.3849   -0.7374    0.0000 C   0  0  1  0  0  0  0  0  0  0  0  0
    4.6703   -0.3249    0.0000 C   0  0  1  0  0  0  0  0  0  0  0  0
    6.8799    0.7515    0.0000 C   0  0  1  0  0  0  0  0  0  0  0  0
    3.9196   -0.7431    0.0000 C   0  0  2  0  0  0  0  0  0  0  0  0
    6.8799   -0.5763    0.0000 C   0  0  0  0  0  0  0  0  0  0  0  0
    5.3849    0.9126    0.0000 C   0  0  0  0  0  0  0  0  0  0  0  0
    7.3614    0.0876    0.0000 C   0  0  0  0  0  0  0  0  0  0  0  0
    5.3981   -1.5966    0.0000 C   0  0  0  0  0  0  0  0  0  0  0  0
    4.6703    0.5001    0.0000 C   0  0  0  0  0  0  0  0  0  0  0  0
    6.0993    1.3251    0.0000 C   0  0  0  0  0  0  0  0  0  0  0  0
    3.9130   -1.6024    0.0000 C   0  0  0  0  0  0  0  0  0  0  0  0
    4.6572   -2.0321    0.0000 C   0  0  0  0  0  0  0  0  0  0  0  0
    3.1550   -0.2777    0.0000 C   0  0  0  0  0  0  0  0  0  0  0  0
    7.5482    1.2353    0.0000 C   0  0  0  0  0  0  0  0  0  0  0  0
    3.9259    0.0819    0.0000 C   0  0  0  0  0  0  0  0  0  0  0  0
    2.3729   -0.7132    0.0000 C   0  0  0  0  0  0  0  0  0  0  0  0
    3.1413   -2.0559    0.0000 C   0  0  0  0  0  0  0  0  0  0  0  0
    2.3660   -1.6083    0.0000 C   0  0  0  0  0  0  0  0  0  0  0  0
    8.3013    0.8984    0.0000 C   0  0  0  0  0  0  0  0  0  0  0  0
    9.7227    1.0453    0.0000 C   0  0  0  0  0  0  0  0  0  0  0  0
   10.3910    1.5291    0.0000 C   0  0  0  0  0  0  0  0  0  0  0  0
    6.1691   -0.9812    0.0000 H   0  0  0  0  0  0  0  0  0  0  0  0
    5.9589   -1.0630    0.0000 H   0  0  0  0  0  0  0  0  0  0  0  0
    5.2420    0.0051    0.0000 H   0  0  0  0  0  0  0  0  0  0  0  0
 11  1  1  6  0  0  0
  2 17  2  0  0  0  0
  3 22  2  0  0  0  0
  4 27  1  0  0  0  0
  4 28  1  0  0  0  0
  5 26  2  0  0  0  0
  6 28  2  0  0  0  0
  7  8  1  0  0  0  0
  7  9  1  0  0  0  0
  7 13  1  0  0  0  0
  7 30  1  6  0  0  0
  8 11  1  0  0  0  0
  8 14  1  0  0  0  0
  8 18  1  1  0  0  0
  9 10  1  0  0  0  0
  9 16  1  0  0  0  0
  9 31  1  1  0  0  0
 10 12  1  0  0  0  0
 10 17  1  0  0  0  0
 10 32  1  6  0  0  0
 11 15  1  0  0  0  0
 11 22  1  0  0  0  0
 12 19  1  0  0  0  0
 12 21  1  0  0  0  0
 12 23  1  1  0  0  0
 13 15  1  0  0  0  0
 14 17  1  0  0  0  0
 16 20  1  0  0  0  0
 19 20  1  0  0  0  0
 19 25  2  0  0  0  0
 21 24  1  0  0  0  0
 22 27  1  0  0  0  0
 24 26  1  0  0  0  0
 25 26  1  0  0  0  0
 28 29  1  0  0  0  0
M  END
> <DRUGBANK_ID>
DB01380

> <DRUG_GROUPS>
approved

> <GENERIC_NAME>
Cortisone acetate

> <CHEMICAL_FORMULA>
C23H30O6

> <MOLECULAR_WEIGHT>
402.4807

> <EXACT_MASS>
402.204238692

> <IUPAC_NAME>
2-[(1S,2R,10S,11S,14R,15S)-14-hydroxy-2,15-dimethyl-5,17-dioxotetracyclo[8.7.0.0^{2,7}.0^{11,15}]heptadec-6-en-14-yl]-2-oxoethyl acetate

> <IUPAC_TRADITIONAL_NAME>
cortisone acetate

> <INCHI_IDENTIFIER>
InChI=1S/C23H30O6/c1-13(24)29-12-19(27)23(28)9-7-17-16-5-4-14-10-15(25)6-8-21(14,2)20(16)18(26)11-22(17,23)3/h10,16-17,20,28H,4-9,11-12H2,1-3H3/t16-,17-,20+,21-,22-,23-/m0/s1

> <INCHI_KEY>
InChIKey=ITRJWOMZKQRYTA-RFZYENFJSA-N

> <SMILES>
[H][C@@]12CC[C@](O)(C(=O)COC(C)=O)[C@@]1(C)CC(=O)[C@@]1([H])[C@@]2([H])CCC2=CC(=O)CC[C@]12C

> <JCHEM_ACCEPTOR_COUNT>
5

> <JCHEM_DONOR_COUNT>
1

> <JCHEM_ACIDIC_PKA>
12.6

> <JCHEM_BASIC_PKA>
-3.8

> <JCHEM_PHYSIOLOGICAL_CHARGE>
0

> <ALOGPS_LOGP>
2.35

> <JCHEM_LOGP>
2.1

> <ALOGPS_LOGS>
-4.2

> <JCHEM_POLARIZABILITY>
43.25

> <JCHEM_POLAR_SURFACE_AREA>
97.74

> <JCHEM_REFRACTIVITY>
105.63

> <JCHEM_ROTATABLE_BOND_COUNT>
4

> <ALOGPS_SOLUBILITY>
2.78e-02 g/l __ 

$$$$
