
  Mrv0541 02231215492D          

 10  9  0  0  1  0            999 V2000
    1.7605    1.8414    0.0000 O   0  0  0  0  0  0  0  0  0  0  0  0
    2.4750    1.4289    0.0000 C   0  0  0  0  0  0  0  0  0  0  0  0
    3.1895    1.8414    0.0000 C   0  0  2  0  0  0  0  0  0  0  0  0
    3.1895    2.6664    0.0000 O   0  0  0  0  0  0  0  0  0  0  0  0
    3.9039    1.4289    0.0000 C   0  0  1  0  0  0  0  0  0  0  0  0
    3.9039    0.6039    0.0000 O   0  0  0  0  0  0  0  0  0  0  0  0
    4.6184    1.8414    0.0000 C   0  0  2  0  0  0  0  0  0  0  0  0
    4.6184    2.6664    0.0000 O   0  0  0  0  0  0  0  0  0  0  0  0
    5.3329    1.4289    0.0000 C   0  0  0  0  0  0  0  0  0  0  0  0
    6.0474    1.8414    0.0000 O   0  0  0  0  0  0  0  0  0  0  0  0
  1  2  1  0  0  0  0
  2  3  1  0  0  0  0
  3  4  1  6  0  0  0
  3  5  1  0  0  0  0
  5  6  1  6  0  0  0
  5  7  1  0  0  0  0
  7  8  1  6  0  0  0
  7  9  1  0  0  0  0
  9 10  1  0  0  0  0
M  END
> <DRUGBANK_ID>
DB01904

> <DRUG_GROUPS>
experimental

> <GENERIC_NAME>
D-Xylitol

> <CHEMICAL_FORMULA>
C5H12O5

> <MOLECULAR_WEIGHT>
152.1458

> <EXACT_MASS>
152.068473494

> <IUPAC_NAME>
(2R,3r,4S)-pentane-1,2,3,4,5-pentol

> <IUPAC_TRADITIONAL_NAME>
D-xylitol

> <INCHI_IDENTIFIER>
InChI=1S/C5H12O5/c6-1-3(8)5(10)4(9)2-7/h3-10H,1-2H2/t3-,4+,5+

> <INCHI_KEY>
InChIKey=HEBKCHPVOIAQTA-SCDXWVJYSA-N

> <SMILES>
OC[C@H](O)[C@@H](O)[C@H](O)CO

> <JCHEM_ACCEPTOR_COUNT>
5

> <JCHEM_DONOR_COUNT>
5

> <JCHEM_ACIDIC_PKA>
12.76

> <JCHEM_BASIC_PKA>
-3

> <JCHEM_PHYSIOLOGICAL_CHARGE>
0

> <ALOGPS_LOGP>
-2.5

> <JCHEM_LOGP>
-3.1

> <ALOGPS_LOGS>
0.64

> <JCHEM_POLARIZABILITY>
14.42

> <JCHEM_POLAR_SURFACE_AREA>
101.15

> <JCHEM_REFRACTIVITY>
32.44

> <JCHEM_ROTATABLE_BOND_COUNT>
4

> <ALOGPS_SOLUBILITY>
6.64e+02 g/l __ 

$$$$
