1161
  Mrv0541 02231215172D          

 18 18  0  0  0  0            999 V2000
    1.6500   -0.9034    0.0000 Cl   0  0  0  0  0  0  0  0  0  0  0  0
    3.7935    0.3341    0.0000 O    0  0  0  0  0  0  0  0  0  0  0  0
    2.3645    0.3341    0.0000 O    0  0  0  0  0  0  0  0  0  0  0  0
    4.5080    2.3967    0.0000 N    0  0  0  0  0  0  0  0  0  0  0  0
    3.0791   -3.3784    0.0000 N    0  0  0  0  0  0  0  0  0  0  0  0
    4.5080    1.5717    0.0000 C    0  0  0  0  0  0  0  0  0  0  0  0
    5.2224    2.8092    0.0000 C    0  0  0  0  0  0  0  0  0  0  0  0
    3.7935    2.8092    0.0000 C    0  0  0  0  0  0  0  0  0  0  0  0
    3.7935    1.1592    0.0000 C    0  0  0  0  0  0  0  0  0  0  0  0
    5.2224    3.6342    0.0000 C    0  0  0  0  0  0  0  0  0  0  0  0
    3.7935    3.6342    0.0000 C    0  0  0  0  0  0  0  0  0  0  0  0
    3.0791   -0.0784    0.0000 C    0  0  0  0  0  0  0  0  0  0  0  0
    3.0791   -0.9034    0.0000 C    0  0  0  0  0  0  0  0  0  0  0  0
    2.3645   -1.3159    0.0000 C    0  0  0  0  0  0  0  0  0  0  0  0
    3.7935   -1.3159    0.0000 C    0  0  0  0  0  0  0  0  0  0  0  0
    3.0791   -2.5534    0.0000 C    0  0  0  0  0  0  0  0  0  0  0  0
    2.3645   -2.1409    0.0000 C    0  0  0  0  0  0  0  0  0  0  0  0
    3.7935   -2.1409    0.0000 C    0  0  0  0  0  0  0  0  0  0  0  0
  1 14  1  0  0  0  0
  2  9  1  0  0  0  0
  2 12  1  0  0  0  0
  3 12  2  0  0  0  0
  4  6  1  0  0  0  0
  4  7  1  0  0  0  0
  4  8  1  0  0  0  0
  5 16  1  0  0  0  0
  6  9  1  0  0  0  0
  7 10  1  0  0  0  0
  8 11  1  0  0  0  0
 12 13  1  0  0  0  0
 13 14  2  0  0  0  0
 13 15  1  0  0  0  0
 14 17  1  0  0  0  0
 15 18  2  0  0  0  0
 16 17  2  0  0  0  0
 16 18  1  0  0  0  0
M  END
> <DRUGBANK_ID>
DB01161

> <DRUG_GROUPS>
approved

> <GENERIC_NAME>
Chloroprocaine

> <SYNONYMS>
Chloroprocain; Chlorprocaine

> <SALTS>
Chloroprocaine hydrochloride

> <BRANDS>
Nesacaine

> <CHEMICAL_FORMULA>
C13H19ClN2O2

> <MOLECULAR_WEIGHT>
270.755

> <EXACT_MASS>
270.113505569

> <IUPAC_NAME>
2-(diethylamino)ethyl 4-amino-2-chlorobenzoate

> <IUPAC_TRADITIONAL_NAME>
chloroprocaine

> <INCHI_IDENTIFIER>
InChI=1S/C13H19ClN2O2/c1-3-16(4-2)7-8-18-13(17)11-6-5-10(15)9-12(11)14/h5-6,9H,3-4,7-8,15H2,1-2H3

> <INCHI_KEY>
InChIKey=VDANGULDQQJODZ-UHFFFAOYSA-N

> <SMILES>
CCN(CC)CCOC(=O)C1=C(Cl)C=C(N)C=C1

> <JCHEM_ACCEPTOR_COUNT>
3

> <JCHEM_DONOR_COUNT>
1

> <JCHEM_BASIC_PKA>
8.96

> <JCHEM_PHYSIOLOGICAL_CHARGE>
1

> <ALOGPS_LOGP>
2.72

> <JCHEM_LOGP>
2.48

> <ALOGPS_LOGS>
-2.3

> <JCHEM_POLARIZABILITY>
28.74

> <JCHEM_POLAR_SURFACE_AREA>
55.56

> <JCHEM_REFRACTIVITY>
75.1

> <JCHEM_ROTATABLE_BOND_COUNT>
7

> <ALOGPS_SOLUBILITY>
1.30e+00 g/l __ 

$$$$
