1420
  Mrv0541 02231215292D          

 28 31  0  0  1  0            999 V2000
    7.1363    1.2335    0.0000 O   0  0  0  0  0  0  0  0  0  0  0  0
    1.6500   -2.3202    0.0000 O   0  0  0  0  0  0  0  0  0  0  0  0
    8.4945    0.7896    0.0000 O   0  0  0  0  0  0  0  0  0  0  0  0
    6.0993   -0.6270    0.0000 C   0  0  2  0  0  0  0  0  0  0  0  0
    6.0993    0.1980    0.0000 C   0  0  2  0  0  0  0  0  0  0  0  0
    5.3849   -1.0395    0.0000 C   0  0  1  0  0  0  0  0  0  0  0  0
    4.6703   -0.6270    0.0000 C   0  0  1  0  0  0  0  0  0  0  0  0
    3.9196   -1.0452    0.0000 C   0  0  2  0  0  0  0  0  0  0  0  0
    5.3849    0.6105    0.0000 C   0  0  0  0  0  0  0  0  0  0  0  0
    4.6703    0.1980    0.0000 C   0  0  0  0  0  0  0  0  0  0  0  0
    6.8799    0.4494    0.0000 C   0  0  2  0  0  0  0  0  0  0  0  0
    6.8799   -0.8785    0.0000 C   0  0  0  0  0  0  0  0  0  0  0  0
    5.3981   -1.8987    0.0000 C   0  0  0  0  0  0  0  0  0  0  0  0
    7.3614   -0.2145    0.0000 C   0  0  0  0  0  0  0  0  0  0  0  0
    3.9130   -1.9045    0.0000 C   0  0  0  0  0  0  0  0  0  0  0  0
    6.0993    1.0230    0.0000 C   0  0  0  0  0  0  0  0  0  0  0  0
    4.6572   -2.3342    0.0000 C   0  0  0  0  0  0  0  0  0  0  0  0
    3.1550   -0.5798    0.0000 C   0  0  0  0  0  0  0  0  0  0  0  0
    3.9259   -0.2202    0.0000 C   0  0  0  0  0  0  0  0  0  0  0  0
    2.3730   -1.0153    0.0000 C   0  0  0  0  0  0  0  0  0  0  0  0
    3.1413   -2.3580    0.0000 C   0  0  0  0  0  0  0  0  0  0  0  0
    2.3660   -1.9105    0.0000 C   0  0  0  0  0  0  0  0  0  0  0  0
    7.9435    1.4037    0.0000 C   0  0  0  0  0  0  0  0  0  0  0  0
    8.1998    2.1879    0.0000 C   0  0  0  0  0  0  0  0  0  0  0  0
    9.0071    2.3580    0.0000 C   0  0  0  0  0  0  0  0  0  0  0  0
    6.1691   -1.2833    0.0000 H   0  0  0  0  0  0  0  0  0  0  0  0
    5.9589   -1.3651    0.0000 H   0  0  0  0  0  0  0  0  0  0  0  0
    5.2420   -0.2970    0.0000 H   0  0  0  0  0  0  0  0  0  0  0  0
 11  1  1  1  0  0  0
  1 23  1  0  0  0  0
  2 22  2  0  0  0  0
  3 23  2  0  0  0  0
  4  5  1  0  0  0  0
  4  6  1  0  0  0  0
  4 12  1  0  0  0  0
  4 26  1  6  0  0  0
  5  9  1  0  0  0  0
  5 11  1  0  0  0  0
  5 16  1  1  0  0  0
  6  7  1  0  0  0  0
  6 13  1  0  0  0  0
  6 27  1  1  0  0  0
  7  8  1  0  0  0  0
  7 10  1  0  0  0  0
  7 28  1  6  0  0  0
  8 15  1  0  0  0  0
  8 18  1  0  0  0  0
  8 19  1  1  0  0  0
  9 10  1  0  0  0  0
 11 14  1  0  0  0  0
 12 14  1  0  0  0  0
 13 17  1  0  0  0  0
 15 17  1  0  0  0  0
 15 21  2  0  0  0  0
 18 20  1  0  0  0  0
 20 22  1  0  0  0  0
 21 22  1  0  0  0  0
 23 24  1  0  0  0  0
 24 25  1  0  0  0  0
M  END
> <DRUGBANK_ID>
DB01420

> <DRUG_GROUPS>
approved

> <GENERIC_NAME>
Testosterone Propionate

> <CHEMICAL_FORMULA>
C22H32O3

> <MOLECULAR_WEIGHT>
344.4877

> <EXACT_MASS>
344.23514489

> <IUPAC_NAME>
(1S,2R,10R,11S,14S,15S)-2,15-dimethyl-5-oxotetracyclo[8.7.0.0^{2,7}.0^{11,15}]heptadec-6-en-14-yl propanoate

> <IUPAC_TRADITIONAL_NAME>
testosterone propionate

> <INCHI_IDENTIFIER>
InChI=1S/C22H32O3/c1-4-20(24)25-19-8-7-17-16-6-5-14-13-15(23)9-11-21(14,2)18(16)10-12-22(17,19)3/h13,16-19H,4-12H2,1-3H3/t16-,17-,18-,19-,21-,22-/m0/s1

> <INCHI_KEY>
InChIKey=PDMMFKSKQVNJMI-BLQWBTBKSA-N

> <SMILES>
[H][C@@]12CC[C@H](OC(=O)CC)[C@@]1(C)CC[C@@]1([H])[C@@]2([H])CCC2=CC(=O)CC[C@]12C

> <JCHEM_ACCEPTOR_COUNT>
2

> <JCHEM_DONOR_COUNT>
0

> <JCHEM_ACIDIC_PKA>
19.09

> <JCHEM_BASIC_PKA>
-4.8

> <JCHEM_PHYSIOLOGICAL_CHARGE>
0

> <ALOGPS_LOGP>
3.65

> <JCHEM_LOGP>
4.51

> <ALOGPS_LOGS>
-4.8

> <JCHEM_POLARIZABILITY>
40.43

> <JCHEM_POLAR_SURFACE_AREA>
43.37

> <JCHEM_REFRACTIVITY>
98.21

> <JCHEM_ROTATABLE_BOND_COUNT>
3

> <ALOGPS_SOLUBILITY>
5.02e-03 g/l __ 

$$$$
