
  Mrv0541 02231215142D          

 40 42  0  0  1  0            999 V2000
    0.7145    0.4125    0.0000 C   0  0  1  0  0  0  0  0  0  0  0  0
    0.7145   -0.4125    0.0000 C   0  0  1  0  0  0  0  0  0  0  0  0
   -0.7145    0.4125    0.0000 O   0  0  0  0  0  0  0  0  0  0  0  0
    0.0000    0.8250    0.0000 C   0  0  1  0  0  0  0  0  0  0  0  0
    0.0000   -0.8250    0.0000 C   0  0  2  0  0  0  0  0  0  0  0  0
   -0.7145   -0.4125    0.0000 C   0  0  2  0  0  0  0  0  0  0  0  0
   -1.9370    2.5474    0.0000 C   0  0  2  0  0  0  0  0  0  0  0  0
   -2.7620    2.5474    0.0000 C   0  0  0  0  0  0  0  0  0  0  0  0
   -1.4521    3.2149    0.0000 O   0  0  0  0  0  0  0  0  0  0  0  0
   -0.6674    2.9599    0.0000 C   0  0  2  0  0  0  0  0  0  0  0  0
   -0.6674    2.1349    0.0000 C   0  0  2  0  0  0  0  0  0  0  0  0
    0.0000    3.4448    0.0000 O   0  0  0  0  0  0  0  0  0  0  0  0
    0.7145    5.5073    0.0000 C   0  0  1  0  0  0  0  0  0  0  0  0
    1.4289    5.9198    0.0000 O   0  0  0  0  0  0  0  0  0  0  0  0
    0.0000    4.2698    0.0000 C   0  0  2  0  0  0  0  0  0  0  0  0
   -0.7145    5.5073    0.0000 C   0  0  1  0  0  0  0  0  0  0  0  0
   -1.4289    5.9198    0.0000 O   0  0  0  0  0  0  0  0  0  0  0  0
   -0.7145    4.6823    0.0000 C   0  0  2  0  0  0  0  0  0  0  0  0
    0.0000    5.9198    0.0000 C   0  0  1  0  0  0  0  0  0  0  0  0
    0.7145    4.6823    0.0000 C   0  0  2  0  0  0  0  0  0  0  0  0
    1.4289    4.2698    0.0000 O   0  0  0  0  0  0  0  0  0  0  0  0
   -1.4289    4.2698    0.0000 N   0  0  0  0  0  0  0  0  0  0  0  0
   -2.8579    4.2698    0.0000 N   0  0  0  0  0  0  0  0  0  0  0  0
   -2.1434    4.6823    0.0000 C   0  0  0  0  0  0  0  0  0  0  0  0
   -2.1434    5.5073    0.0000 N   0  0  0  0  0  0  0  0  0  0  0  0
    0.0000    1.6500    0.0000 O   0  0  0  0  0  0  0  0  0  0  0  0
    0.0000   -1.6500    0.0000 O   0  0  0  0  0  0  0  0  0  0  0  0
    1.4289   -0.8250    0.0000 O   0  0  0  0  0  0  0  0  0  0  0  0
   -1.4289   -0.8250    0.0000 C   0  0  0  0  0  0  0  0  0  0  0  0
   -2.1434   -0.4125    0.0000 O   0  0  0  0  0  0  0  0  0  0  0  0
    2.1434    0.4125    0.0000 C   0  0  0  0  0  0  0  0  0  0  0  0
    1.4289    0.8250    0.0000 N   0  0  0  0  0  0  0  0  0  0  0  0
    0.0000    6.7448    0.0000 N   0  0  0  0  0  0  0  0  0  0  0  0
    1.4289    6.7448    0.0000 N   0  0  0  0  0  0  0  0  0  0  0  0
    0.7145    7.1573    0.0000 C   0  0  0  0  0  0  0  0  0  0  0  0
    0.7145    7.9823    0.0000 N   0  0  0  0  0  0  0  0  0  0  0  0
   -1.8646    1.1655    0.0000 C   0  0  0  0  0  0  0  0  0  0  0  0
   -2.6896    1.1655    0.0000 O   0  0  0  0  0  0  0  0  0  0  0  0
   -1.4521    1.8800    0.0000 C   0  0  1  0  0  0  0  0  0  0  0  0
   -1.2385    1.0831    0.0000 O   0  0  0  0  0  0  0  0  0  0  0  0
  1 32  1  1  0  0  0
  2  1  1  0  0  0  0
  2 28  1  6  0  0  0
  3  4  1  0  0  0  0
  1  4  1  0  0  0  0
  4 26  1  1  0  0  0
  5  2  1  0  0  0  0
  5 27  1  1  0  0  0
  6  5  1  0  0  0  0
  3  6  1  0  0  0  0
  6 29  1  6  0  0  0
  9  7  1  0  0  0  0
  7 39  1  0  0  0  0
  7  8  1  6  0  0  0
  9 10  1  0  0  0  0
 11 10  1  0  0  0  0
 10 12  1  1  0  0  0
 39 11  1  0  0  0  0
 11 26  1  6  0  0  0
 15 12  1  6  0  0  0
 19 13  1  0  0  0  0
 20 13  1  0  0  0  0
 13 14  1  6  0  0  0
 18 15  1  0  0  0  0
 15 20  1  0  0  0  0
 19 16  1  0  0  0  0
 16 18  1  0  0  0  0
 16 17  1  6  0  0  0
 18 22  1  1  0  0  0
 19 33  1  1  0  0  0
 20 21  1  1  0  0  0
 22 24  1  0  0  0  0
 24 23  1  0  0  0  0
 24 25  2  0  0  0  0
 29 30  1  0  0  0  0
 32 31  1  0  0  0  0
 35 33  1  0  0  0  0
 34 35  1  0  0  0  0
 35 36  2  0  0  0  0
 39 37  1  1  0  0  0
 37 38  2  0  0  0  0
 39 40  1  0  0  0  0
M  END
> <DRUGBANK_ID>
DB01082

> <DRUG_GROUPS>
approved

> <GENERIC_NAME>
Streptomycin

> <SALTS>
Streptomycin Sulfate

> <CHEMICAL_FORMULA>
C21H39N7O12

> <MOLECULAR_WEIGHT>
581.5741

> <EXACT_MASS>
581.265669747

> <IUPAC_NAME>
1-[(1S,2R,3R,4S,5R,6R)-3-carbamimidamido-6-{[(2R,3R,4R,5S)-3-{[(2S,3S,4S,5R,6S)-4,5-dihydroxy-6-(hydroxymethyl)-3-(methylamino)oxan-2-yl]oxy}-4-formyl-4-hydroxy-5-methyloxolan-2-yl]oxy}-2,4,5-trihydroxycyclohexyl]guanidine

> <IUPAC_TRADITIONAL_NAME>
streptomycin

> <INCHI_IDENTIFIER>
InChI=1S/C21H39N7O12/c1-5-21(36,4-30)16(40-17-9(26-2)13(34)10(31)6(3-29)38-17)18(37-5)39-15-8(28-20(24)25)11(32)7(27-19(22)23)12(33)14(15)35/h4-18,26,29,31-36H,3H2,1-2H3,(H4,22,23,27)(H4,24,25,28)/t5-,6-,7+,8-,9-,10-,11+,12-,13-,14+,15+,16-,17-,18-,21+/m0/s1

> <INCHI_KEY>
InChIKey=UCSJYZPVAKXKNQ-HZYVHMACSA-N

> <SMILES>
CN[C@H]1[C@H](O)[C@@H](O)[C@H](CO)O[C@H]1O[C@H]1[C@H](O[C@H]2[C@H](O)[C@@H](O)[C@H](NC(N)=N)[C@@H](O)[C@@H]2NC(N)=N)O[C@@H](C)[C@]1(O)C=O

> <JCHEM_ACCEPTOR_COUNT>
19

> <JCHEM_DONOR_COUNT>
14

> <JCHEM_ACIDIC_PKA>
10.88

> <JCHEM_BASIC_PKA>
11.9

> <JCHEM_PHYSIOLOGICAL_CHARGE>
3

> <ALOGPS_LOGP>
-2.6

> <JCHEM_LOGP>
-7.7

> <ALOGPS_LOGS>
-1.7

> <JCHEM_POLARIZABILITY>
55.76

> <JCHEM_POLAR_SURFACE_AREA>
331.43

> <JCHEM_REFRACTIVITY>
149.47

> <JCHEM_ROTATABLE_BOND_COUNT>
9

> <ALOGPS_SOLUBILITY>
1.28e+01 g/l __ 

$$$$
