1273
  Mrv0541 02231215222D          

 18 21  0  0  1  0            999 V2000
    7.5417    0.0362    0.0000 N   0  0  0  0  0  0  0  0  0  0  0  0
    2.7584   -1.8273    0.0000 N   0  0  0  0  0  0  0  0  0  0  0  0
    1.9389   -0.4079    0.0000 N   0  0  0  0  0  0  0  0  0  0  0  0
    5.6545    0.3520    0.0000 C   0  0  1  0  0  0  0  0  0  0  0  0
    5.8513    1.0865    0.0000 C   0  0  2  0  0  0  0  0  0  0  0  0
    5.2911    1.8337    0.0000 C   0  0  0  0  0  0  0  0  0  0  0  0
    4.3374   -0.4085    0.0000 C   0  0  0  0  0  0  0  0  0  0  0  0
    3.9572    0.2501    0.0000 C   0  0  0  0  0  0  0  0  0  0  0  0
    6.9508   -0.4425    0.0000 C   0  0  0  0  0  0  0  0  0  0  0  0
    7.2692    0.7461    0.0000 C   0  0  0  0  0  0  0  0  0  0  0  0
    3.9519   -1.1004    0.0000 C   0  0  0  0  0  0  0  0  0  0  0  0
    3.1652    0.2623    0.0000 C   0  0  0  0  0  0  0  0  0  0  0  0
    3.1599   -1.1066    0.0000 C   0  0  0  0  0  0  0  0  0  0  0  0
    2.7638   -0.4206    0.0000 C   0  0  0  0  0  0  0  0  0  0  0  0
    1.9333   -1.8337    0.0000 C   0  0  0  0  0  0  0  0  0  0  0  0
    1.5208   -1.1192    0.0000 C   0  0  0  0  0  0  0  0  0  0  0  0
    5.4970   -0.2356    0.0000 H   0  0  0  0  0  0  0  0  0  0  0  0
    6.0088    1.6741    0.0000 H   0  0  0  0  0  0  0  0  0  0  0  0
  1  9  1  0  0  0  0
  1 10  1  0  0  0  0
  2 13  2  0  0  0  0
  2 15  1  0  0  0  0
  3 14  2  0  0  0  0
  3 16  1  0  0  0  0
  4  6  1  0  0  0  0
  4  7  1  0  0  0  0
  4  9  1  0  0  0  0
  4 17  1  1  0  0  0
  5  6  1  0  0  0  0
  5  8  1  0  0  0  0
  5 10  1  0  0  0  0
  5 18  1  6  0  0  0
  7  8  1  0  0  0  0
  7 11  2  0  0  0  0
  8 12  2  0  0  0  0
 11 13  1  0  0  0  0
 12 14  1  0  0  0  0
 13 14  1  0  0  0  0
 15 16  2  0  0  0  0
M  END
> <DRUGBANK_ID>
DB01273

> <DRUG_GROUPS>
approved; investigational

> <GENERIC_NAME>
Varenicline

> <SYNONYMS>


> <SALTS>
Varenicline tartrate

> <BRANDS>


> <CHEMICAL_FORMULA>
C13H13N3

> <MOLECULAR_WEIGHT>
211.2624

> <EXACT_MASS>
211.110947431

> <IUPAC_NAME>
(1R,12S)-5,8,14-triazatetracyclo[10.3.1.0^{2,11}.0^{4,9}]hexadeca-2(11),3,5,7,9-pentaene

> <IUPAC_TRADITIONAL_NAME>
varenicline

> <INCHI_IDENTIFIER>
InChI=1S/C13H13N3/c1-2-16-13-5-11-9-3-8(6-14-7-9)10(11)4-12(13)15-1/h1-2,4-5,8-9,14H,3,6-7H2/t8-,9+

> <INCHI_KEY>
InChIKey=JQSHBVHOMNKWFT-DTORHVGOSA-N

> <SMILES>
[H][C@]12C[C@]([H])(CNC1)C1=CC3=NC=CN=C3C=C21

> <JCHEM_ACCEPTOR_COUNT>
3

> <JCHEM_DONOR_COUNT>
1

> <JCHEM_BASIC_PKA>
9.73

> <JCHEM_PHYSIOLOGICAL_CHARGE>
1

> <ALOGPS_LOGP>
1.39

> <JCHEM_LOGP>
1.01

> <ALOGPS_LOGS>
-3.4

> <JCHEM_POLARIZABILITY>
23.12

> <JCHEM_POLAR_SURFACE_AREA>
37.81

> <JCHEM_REFRACTIVITY>
61.3

> <JCHEM_ROTATABLE_BOND_COUNT>
0

> <ALOGPS_SOLUBILITY>
8.77e-02 g/l __ 

$$$$
