256
  Mrv0541 02231215472D          

 15 15  0  0  0  0            999 V2000
    1.2781    0.8840    0.0000 C   0  0  0  0  0  0  0  0  0  0  0  0
    1.2781    0.0590    0.0000 C   0  0  0  0  0  0  0  0  0  0  0  0
    0.5636   -0.3535    0.0000 C   0  0  0  0  0  0  0  0  0  0  0  0
   -0.1508    0.0590    0.0000 C   0  0  0  0  0  0  0  0  0  0  0  0
   -0.1508    0.8840    0.0000 C   0  0  0  0  0  0  0  0  0  0  0  0
    0.5636    1.2965    0.0000 C   0  0  0  0  0  0  0  0  0  0  0  0
   -0.8653   -0.3535    0.0000 C   0  0  2  0  0  0  0  0  0  0  0  0
   -1.5798    0.0590    0.0000 C   0  0  0  0  0  0  0  0  0  0  0  0
   -2.2942   -0.3535    0.0000 O   0  0  0  0  0  0  0  0  0  0  0  0
   -0.8653   -1.1785    0.0000 S   0  0  0  0  0  0  0  0  0  0  0  0
   -0.8653   -2.0035    0.0000 O   0  0  0  0  0  0  0  0  0  0  0  0
   -1.5798    0.8840    0.0000 O   0  0  0  0  0  0  0  0  0  0  0  0
   -1.6903   -1.1785    0.0000 O   0  0  0  0  0  0  0  0  0  0  0  0
   -0.0403   -1.1785    0.0000 O   0  0  0  0  0  0  0  0  0  0  0  0
   -0.8653    0.2304    0.0000 H   0  0  0  0  0  0  0  0  0  0  0  0
  1  2  2  0  0  0  0
  1  6  1  0  0  0  0
  2  3  1  0  0  0  0
  3  4  2  0  0  0  0
  4  5  1  0  0  0  0
  4  7  1  0  0  0  0
  5  6  2  0  0  0  0
  7  8  1  0  0  0  0
  7 10  1  6  0  0  0
  7 15  1  6  0  0  0
  8  9  1  0  0  0  0
  8 12  2  0  0  0  0
 10 11  1  0  0  0  0
 10 13  2  0  0  0  0
 10 14  2  0  0  0  0
M  END
> <DRUGBANK_ID>
DB01866

> <DRUG_GROUPS>
experimental

> <GENERIC_NAME>
RU79256

> <CHEMICAL_FORMULA>
C8H8O5S

> <MOLECULAR_WEIGHT>
216.211

> <EXACT_MASS>
216.009244056

> <IUPAC_NAME>
(2R)-2-phenyl-2-sulfoacetic acid

> <IUPAC_TRADITIONAL_NAME>
(R)-phenyl(sulfo)acetic acid

> <INCHI_IDENTIFIER>
InChI=1S/C8H8O5S/c9-8(10)7(14(11,12)13)6-4-2-1-3-5-6/h1-5,7H,(H,9,10)(H,11,12,13)/t7-/m1/s1

> <INCHI_KEY>
InChIKey=USNMCXDGQQVYSW-SSDOTTSWSA-N

> <SMILES>
[H][C@](C(O)=O)(C1=CC=CC=C1)S(O)(=O)=O

> <JCHEM_ACCEPTOR_COUNT>
5

> <JCHEM_DONOR_COUNT>
2

> <JCHEM_ACIDIC_PKA>
-1.3

> <JCHEM_PHYSIOLOGICAL_CHARGE>
-2

> <ALOGPS_LOGP>
-0.26

> <JCHEM_LOGP>
0.91

> <ALOGPS_LOGS>
-1.9

> <JCHEM_POLARIZABILITY>
18.73

> <JCHEM_POLAR_SURFACE_AREA>
91.67

> <JCHEM_REFRACTIVITY>
47.35

> <JCHEM_ROTATABLE_BOND_COUNT>
3

> <ALOGPS_SOLUBILITY>
2.41e+00 g/l __ 

$$$$
