1263
  Mrv0541 02231215222D          

 51 57  0  0  1  0            999 V2000
    2.8383   -2.8096    0.0000 F   0  0  0  0  0  0  0  0  0  0  0  0
    4.2672   -5.2847    0.0000 F   0  0  0  0  0  0  0  0  0  0  0  0
    4.0123   -1.2000    0.0000 O   0  0  0  0  0  0  0  0  0  0  0  0
    6.3034   -0.1380    0.0000 O   0  0  0  0  0  0  0  0  0  0  0  0
   17.0201    4.4447    0.0000 O   0  0  0  0  0  0  0  0  0  0  0  0
   13.9198    3.8636    0.0000 O   0  0  0  0  0  0  0  0  0  0  0  0
    2.8695   -1.6875    0.0000 N   0  0  0  0  0  0  0  0  0  0  0  0
    2.0625   -1.8590    0.0000 N   0  0  0  0  0  0  0  0  0  0  0  0
    9.4420    0.8818    0.0000 N   0  0  0  0  0  0  0  0  0  0  0  0
   11.0113    1.3916    0.0000 N   0  0  0  0  0  0  0  0  0  0  0  0
    2.2021   -0.5314    0.0000 N   0  0  0  0  0  0  0  0  0  0  0  0
   15.2298    3.1960    0.0000 N   0  0  0  0  0  0  0  0  0  0  0  0
   14.1498    2.4114    0.0000 N   0  0  0  0  0  0  0  0  0  0  0  0
   15.4847    2.4114    0.0000 N   0  0  0  0  0  0  0  0  0  0  0  0
    4.2672   -1.9846    0.0000 C   0  0  1  0  0  0  0  0  0  0  0  0
    5.0923   -1.9846    0.0000 C   0  0  0  0  0  0  0  0  0  0  0  0
    5.3473   -1.2000    0.0000 C   0  0  0  0  0  0  0  0  0  0  0  0
    4.6798   -0.7150    0.0000 C   0  0  0  0  0  0  0  0  0  0  0  0
    3.4826   -2.2395    0.0000 C   0  0  0  0  0  0  0  0  0  0  0  0
    4.2672   -2.8096    0.0000 C   0  0  0  0  0  0  0  0  0  0  0  0
    6.1319   -0.9450    0.0000 C   0  0  0  0  0  0  0  0  0  0  0  0
    3.5528   -3.2221    0.0000 C   0  0  0  0  0  0  0  0  0  0  0  0
    4.9818   -3.2221    0.0000 C   0  0  0  0  0  0  0  0  0  0  0  0
    3.5528   -4.0471    0.0000 C   0  0  0  0  0  0  0  0  0  0  0  0
    4.9818   -4.0471    0.0000 C   0  0  0  0  0  0  0  0  0  0  0  0
    2.9558   -0.8670    0.0000 C   0  0  0  0  0  0  0  0  0  0  0  0
    7.0881    0.1169    0.0000 C   0  0  0  0  0  0  0  0  0  0  0  0
    4.2672   -4.4596    0.0000 C   0  0  0  0  0  0  0  0  0  0  0  0
   10.0551    0.3297    0.0000 C   0  0  0  0  0  0  0  0  0  0  0  0
    9.6135    1.6887    0.0000 C   0  0  0  0  0  0  0  0  0  0  0  0
   10.8397    0.5847    0.0000 C   0  0  0  0  0  0  0  0  0  0  0  0
   10.3981    1.9437    0.0000 C   0  0  0  0  0  0  0  0  0  0  0  0
    8.6573    0.6268    0.0000 C   0  0  0  0  0  0  0  0  0  0  0  0
    7.7011   -0.4351    0.0000 C   0  0  0  0  0  0  0  0  0  0  0  0
    7.2596    0.9239    0.0000 C   0  0  0  0  0  0  0  0  0  0  0  0
    1.6500   -1.1445    0.0000 C   0  0  0  0  0  0  0  0  0  0  0  0
    8.4858   -0.1802    0.0000 C   0  0  0  0  0  0  0  0  0  0  0  0
    8.0443    1.1789    0.0000 C   0  0  0  0  0  0  0  0  0  0  0  0
   11.7959    1.6466    0.0000 C   0  0  0  0  0  0  0  0  0  0  0  0
   15.7147    3.8636    0.0000 C   0  0  2  0  0  0  0  0  0  0  0  0
   12.4090    1.0946    0.0000 C   0  0  0  0  0  0  0  0  0  0  0  0
   11.9674    2.4536    0.0000 C   0  0  0  0  0  0  0  0  0  0  0  0
   16.5352    3.7773    0.0000 C   0  0  2  0  0  0  0  0  0  0  0  0
   13.3651    2.1565    0.0000 C   0  0  0  0  0  0  0  0  0  0  0  0
   15.3792    4.6172    0.0000 C   0  0  0  0  0  0  0  0  0  0  0  0
   13.1936    1.3495    0.0000 C   0  0  0  0  0  0  0  0  0  0  0  0
   12.7521    2.7085    0.0000 C   0  0  0  0  0  0  0  0  0  0  0  0
   14.4047    3.1960    0.0000 C   0  0  0  0  0  0  0  0  0  0  0  0
   14.8172    1.9265    0.0000 C   0  0  0  0  0  0  0  0  0  0  0  0
   16.8708    3.0236    0.0000 C   0  0  0  0  0  0  0  0  0  0  0  0
   15.8641    5.2847    0.0000 C   0  0  0  0  0  0  0  0  0  0  0  0
  1 22  1  0  0  0  0
  2 28  1  0  0  0  0
  3 15  1  0  0  0  0
  3 18  1  0  0  0  0
  4 21  1  0  0  0  0
  4 27  1  0  0  0  0
 43  5  1  1  0  0  0
  6 48  2  0  0  0  0
  7  8  1  0  0  0  0
  7 19  1  0  0  0  0
  7 26  1  0  0  0  0
  8 36  2  0  0  0  0
  9 29  1  0  0  0  0
  9 30  1  0  0  0  0
  9 33  1  0  0  0  0
 10 31  1  0  0  0  0
 10 32  1  0  0  0  0
 10 39  1  0  0  0  0
 11 26  2  0  0  0  0
 11 36  1  0  0  0  0
 12 14  1  0  0  0  0
 12 40  1  0  0  0  0
 12 48  1  0  0  0  0
 13 44  1  0  0  0  0
 13 48  1  0  0  0  0
 13 49  1  0  0  0  0
 14 49  2  0  0  0  0
 15 16  1  0  0  0  0
 15 19  1  1  0  0  0
 15 20  1  0  0  0  0
 16 17  1  0  0  0  0
 17 18  1  0  0  0  0
 17 21  1  0  0  0  0
 20 22  2  0  0  0  0
 20 23  1  0  0  0  0
 22 24  1  0  0  0  0
 23 25  2  0  0  0  0
 24 28  2  0  0  0  0
 25 28  1  0  0  0  0
 27 34  2  0  0  0  0
 27 35  1  0  0  0  0
 29 31  1  0  0  0  0
 30 32  1  0  0  0  0
 33 37  2  0  0  0  0
 33 38  1  0  0  0  0
 34 37  1  0  0  0  0
 35 38  2  0  0  0  0
 39 41  2  0  0  0  0
 39 42  1  0  0  0  0
 40 43  1  0  0  0  0
 40 45  1  1  0  0  0
 41 46  1  0  0  0  0
 42 47  2  0  0  0  0
 43 50  1  0  0  0  0
 44 46  2  0  0  0  0
 44 47  1  0  0  0  0
 45 51  1  0  0  0  0
M  END
> <DRUGBANK_ID>
DB01263

> <DRUG_GROUPS>
approved; investigational

> <GENERIC_NAME>
Posaconazole

> <BRANDS>


> <CHEMICAL_FORMULA>
C37H42F2N8O4

> <MOLECULAR_WEIGHT>
700.7774

> <EXACT_MASS>
700.329708282

> <IUPAC_NAME>
4-{4-[4-(4-{[(5R)-5-(2,4-difluorophenyl)-5-(1H-1,2,4-triazol-1-ylmethyl)oxolan-3-yl]methoxy}phenyl)piperazin-1-yl]phenyl}-1-[(2S,3S)-2-hydroxypentan-3-yl]-4,5-dihydro-1H-1,2,4-triazol-5-one

> <IUPAC_TRADITIONAL_NAME>
posaconazole

> <INCHI_IDENTIFIER>
InChI=1S/C37H42F2N8O4/c1-3-35(26(2)48)47-36(49)46(25-42-47)31-7-5-29(6-8-31)43-14-16-44(17-15-43)30-9-11-32(12-10-30)50-20-27-19-37(51-21-27,22-45-24-40-23-41-45)33-13-4-28(38)18-34(33)39/h4-13,18,23-27,35,48H,3,14-17,19-22H2,1-2H3/t26-,27?,35-,37-/m0/s1

> <INCHI_KEY>
InChIKey=RAGOYPUPXAKGKH-AGDNISCASA-N

> <SMILES>
CC[C@@H]([C@H](C)O)N1N=CN(C1=O)C1=CC=C(C=C1)N1CCN(CC1)C1=CC=C(OCC2CO[C@](CN3C=NC=N3)(C2)C2=C(F)C=C(F)C=C2)C=C1

> <JCHEM_ACCEPTOR_COUNT>
9

> <JCHEM_DONOR_COUNT>
1

> <JCHEM_ACIDIC_PKA>
14.83

> <JCHEM_BASIC_PKA>
3.93

> <JCHEM_PHYSIOLOGICAL_CHARGE>
0

> <ALOGPS_LOGP>
4.71

> <JCHEM_LOGP>
5.41

> <ALOGPS_LOGS>
-4.8

> <JCHEM_POLARIZABILITY>
74.25

> <JCHEM_POLAR_SURFACE_AREA>
111.79

> <JCHEM_REFRACTIVITY>
200.71

> <JCHEM_ROTATABLE_BOND_COUNT>
12

> <ALOGPS_SOLUBILITY>
1.20e-02 g/l __ 

$$$$
