
  Mrv0541 02231215372D          

 17 17  0  0  0  0            999 V2000
    2.1434    1.2375    0.0000 C   0  0  0  0  0  0  0  0  0  0  0  0
    1.4289    0.8250    0.0000 C   0  0  0  0  0  0  0  0  0  0  0  0
    1.4289    0.0000    0.0000 C   0  0  0  0  0  0  0  0  0  0  0  0
    2.1434   -0.4125    0.0000 O   0  0  0  0  0  0  0  0  0  0  0  0
    0.7145   -0.4125    0.0000 C   0  0  0  0  0  0  0  0  0  0  0  0
    0.7145   -1.2375    0.0000 C   0  0  0  0  0  0  0  0  0  0  0  0
    0.0000   -1.6500    0.0000 O   0  0  0  0  0  0  0  0  0  0  0  0
    0.0000    0.0000    0.0000 C   0  0  0  0  0  0  0  0  0  0  0  0
   -0.7145   -0.4125    0.0000 C   0  0  0  0  0  0  0  0  0  0  0  0
   -1.4289    0.0000    0.0000 O   0  0  0  0  0  0  0  0  0  0  0  0
   -2.1434   -0.4125    0.0000 P   0  0  0  0  0  0  0  0  0  0  0  0
   -2.8579   -0.8250    0.0000 O   0  0  0  0  0  0  0  0  0  0  0  0
   -2.5559    0.3020    0.0000 O   0  0  0  0  0  0  0  0  0  0  0  0
   -1.7309   -1.1270    0.0000 O   0  0  0  0  0  0  0  0  0  0  0  0
    0.0000    0.8250    0.0000 C   0  0  0  0  0  0  0  0  0  0  0  0
    0.7145    1.2375    0.0000 N   0  3  0  0  0  0  0  0  0  0  0  0
    0.7145    2.0625    0.0000 C   0  0  0  0  0  0  0  0  0  0  0  0
  1  2  1  0  0  0  0
  2  3  2  0  0  0  0
  3  4  1  0  0  0  0
  3  5  1  0  0  0  0
  5  6  1  0  0  0  0
  6  7  2  0  0  0  0
  5  8  2  0  0  0  0
  8  9  1  0  0  0  0
  9 10  1  0  0  0  0
 10 11  1  0  0  0  0
 11 12  1  0  0  0  0
 11 13  1  0  0  0  0
 11 14  2  0  0  0  0
  8 15  1  0  0  0  0
 15 16  2  0  0  0  0
  2 16  1  0  0  0  0
 16 17  1  0  0  0  0
M  END
> <DRUGBANK_ID>
DB01639

> <DRUG_GROUPS>
experimental

> <GENERIC_NAME>
N-Methyl-Pyridoxal-5'-Phosphate

> <CHEMICAL_FORMULA>
C9H13NO6P

> <MOLECULAR_WEIGHT>
262.1764

> <EXACT_MASS>
262.048048665

> <IUPAC_NAME>
4-formyl-3-hydroxy-1,2-dimethyl-5-[(phosphonooxy)methyl]pyridin-1-ium

> <IUPAC_TRADITIONAL_NAME>
4-formyl-3-hydroxy-1,2-dimethyl-5-[(phosphonooxy)methyl]pyridin-1-ium

> <INCHI_IDENTIFIER>
InChI=1S/C9H12NO6P/c1-6-9(12)8(4-11)7(3-10(6)2)5-16-17(13,14)15/h3-4H,5H2,1-2H3,(H2-,11,12,13,14,15)/p+1

> <INCHI_KEY>
InChIKey=CBNMAKRKGWDQHB-UHFFFAOYSA-O

> <SMILES>
CC1=C(O)C(C=O)=C(COP(O)(O)=O)C=[N+]1C

> <JCHEM_ACCEPTOR_COUNT>
5

> <JCHEM_DONOR_COUNT>
3

> <JCHEM_ACIDIC_PKA>
1.59

> <JCHEM_BASIC_PKA>
-6.6

> <JCHEM_PHYSIOLOGICAL_CHARGE>
-2

> <ALOGPS_LOGP>
-2.1

> <JCHEM_LOGP>
-4.4

> <ALOGPS_LOGS>
-2.8

> <JCHEM_POLARIZABILITY>
23.36

> <JCHEM_POLAR_SURFACE_AREA>
107.94

> <JCHEM_REFRACTIVITY>
61.15

> <JCHEM_ROTATABLE_BOND_COUNT>
4

> <ALOGPS_SOLUBILITY>
4.99e-01 g/l __ 

$$$$
