1121
  Mrv0541 02231215152D          

 13 13  0  0  0  0            999 V2000
    3.7934   -0.1279    0.0000 O   0  0  0  0  0  0  0  0  0  0  0  0
    4.5079    1.1096    0.0000 O   0  0  0  0  0  0  0  0  0  0  0  0
    3.0790    1.1096    0.0000 N   0  0  0  0  0  0  0  0  0  0  0  0
    3.7934    2.3471    0.0000 N   0  0  0  0  0  0  0  0  0  0  0  0
    2.3645   -0.1279    0.0000 C   0  0  0  0  0  0  0  0  0  0  0  0
    2.3645   -0.9529    0.0000 C   0  0  0  0  0  0  0  0  0  0  0  0
    3.0790   -1.3654    0.0000 C   0  0  0  0  0  0  0  0  0  0  0  0
    1.6500   -1.3654    0.0000 C   0  0  0  0  0  0  0  0  0  0  0  0
    3.0790    0.2846    0.0000 C   0  0  0  0  0  0  0  0  0  0  0  0
    3.0790   -2.1904    0.0000 C   0  0  0  0  0  0  0  0  0  0  0  0
    1.6500   -2.1904    0.0000 C   0  0  0  0  0  0  0  0  0  0  0  0
    2.3645   -2.6029    0.0000 C   0  0  0  0  0  0  0  0  0  0  0  0
    3.7934    1.5221    0.0000 C   0  0  0  0  0  0  0  0  0  0  0  0
  1  9  2  0  0  0  0
  2 13  2  0  0  0  0
  3  9  1  0  0  0  0
  3 13  1  0  0  0  0
  4 13  1  0  0  0  0
  5  6  1  0  0  0  0
  5  9  1  0  0  0  0
  6  7  2  0  0  0  0
  6  8  1  0  0  0  0
  7 10  1  0  0  0  0
  8 11  2  0  0  0  0
 10 12  2  0  0  0  0
 11 12  1  0  0  0  0
M  END
> <DRUGBANK_ID>
DB01121

> <DRUG_GROUPS>
approved

> <GENERIC_NAME>
Phenacemide

> <BRANDS>
Phenurone

> <CHEMICAL_FORMULA>
C9H10N2O2

> <MOLECULAR_WEIGHT>
178.1879

> <EXACT_MASS>
178.074227574

> <IUPAC_NAME>
(2-phenylacetyl)urea

> <IUPAC_TRADITIONAL_NAME>
2-phenylacetylurea

> <INCHI_IDENTIFIER>
InChI=1S/C9H10N2O2/c10-9(13)11-8(12)6-7-4-2-1-3-5-7/h1-5H,6H2,(H3,10,11,12,13)

> <INCHI_KEY>
InChIKey=XPFRXWCVYUEORT-UHFFFAOYSA-N

> <SMILES>
NC(=O)NC(=O)CC1=CC=CC=C1

> <JCHEM_ACCEPTOR_COUNT>
2

> <JCHEM_DONOR_COUNT>
2

> <JCHEM_ACIDIC_PKA>
11.75

> <JCHEM_BASIC_PKA>
-7.8

> <JCHEM_PHYSIOLOGICAL_CHARGE>
0

> <ALOGPS_LOGP>
0.81

> <JCHEM_LOGP>
0.46

> <ALOGPS_LOGS>
-2.2

> <JCHEM_POLARIZABILITY>
17.49

> <JCHEM_POLAR_SURFACE_AREA>
72.19

> <JCHEM_REFRACTIVITY>
47.43

> <JCHEM_ROTATABLE_BOND_COUNT>
2

> <ALOGPS_SOLUBILITY>
1.06e+00 g/l __ 

$$$$
