
  Mrv0541 02241214212D          

 21 20  0  0  0  0            999 V2000
    0.8574   -1.0725    0.0000 C    0  0  0  0  0  0  0  0  0  0  0  0
    0.1429   -1.4850    0.0000 C    0  0  0  0  0  0  0  0  0  0  0  0
   -0.5716   -1.0725    0.0000 C    0  0  0  0  0  0  0  0  0  0  0  0
   -0.5716   -0.2475    0.0000 C    0  0  0  0  0  0  0  0  0  0  0  0
    0.1429    0.1650    0.0000 C    0  0  0  0  0  0  0  0  0  0  0  0
    0.8574   -0.2475    0.0000 C    0  0  0  0  0  0  0  0  0  0  0  0
    0.1429    0.9900    0.0000 C    0  0  0  0  0  0  0  0  0  0  0  0
   -0.5716    1.4025    0.0000 O    0  0  0  0  0  0  0  0  0  0  0  0
    0.8574    1.4025    0.0000 O    0  5  0  0  0  0  0  0  0  0  0  0
   -1.2860    0.1650    0.0000 O    0  0  0  0  0  0  0  0  0  0  0  0
    5.1222   -1.0725    0.0000 C    0  0  0  0  0  0  0  0  0  0  0  0
    4.4077   -1.4850    0.0000 C    0  0  0  0  0  0  0  0  0  0  0  0
    3.6933   -1.0725    0.0000 C    0  0  0  0  0  0  0  0  0  0  0  0
    3.6933   -0.2475    0.0000 C    0  0  0  0  0  0  0  0  0  0  0  0
    4.4077    0.1650    0.0000 C    0  0  0  0  0  0  0  0  0  0  0  0
    5.1222   -0.2475    0.0000 C    0  0  0  0  0  0  0  0  0  0  0  0
    4.4077    0.9900    0.0000 C    0  0  0  0  0  0  0  0  0  0  0  0
    3.6933    1.4025    0.0000 O    0  0  0  0  0  0  0  0  0  0  0  0
    5.1222    1.4025    0.0000 O    0  5  0  0  0  0  0  0  0  0  0  0
    2.9788    0.1650    0.0000 O    0  0  0  0  0  0  0  0  0  0  0  0
    0.0000   -3.1350    0.0000 Mg   0  2  0  0  0  0  0  0  0  0  0  0
  1  2  2  0  0  0  0
  2  3  1  0  0  0  0
  3  4  2  0  0  0  0
  4  5  1  0  0  0  0
  5  6  2  0  0  0  0
  1  6  1  0  0  0  0
  5  7  1  0  0  0  0
  7  8  2  0  0  0  0
  7  9  1  0  0  0  0
  4 10  1  0  0  0  0
 11 12  2  0  0  0  0
 12 13  1  0  0  0  0
 13 14  2  0  0  0  0
 14 15  1  0  0  0  0
 15 16  2  0  0  0  0
 11 16  1  0  0  0  0
 15 17  1  0  0  0  0
 17 18  2  0  0  0  0
 17 19  1  0  0  0  0
 14 20  1  0  0  0  0
M  END
> <DRUGBANK_ID>
DB01397

> <DRUG_GROUPS>
approved

> <GENERIC_NAME>
Magnesium salicylate

> <CHEMICAL_FORMULA>
C14H10MgO6

> <MOLECULAR_WEIGHT>
298.531

> <EXACT_MASS>
298.03277995

> <IUPAC_NAME>
magnesium(2+) ion bis(2-hydroxybenzoate)

> <IUPAC_TRADITIONAL_NAME>
magnesium disalicylate

> <INCHI_IDENTIFIER>
InChI=1S/2C7H6O3.Mg/c2*8-6-4-2-1-3-5(6)7(9)10;/h2*1-4,8H,(H,9,10);/q;;+2/p-2

> <INCHI_KEY>
InChIKey=MQHWFIOJQSCFNM-UHFFFAOYSA-L

> <SMILES>
[Mg++].OC1=CC=CC=C1C([O-])=O.OC1=CC=CC=C1C([O-])=O

> <JCHEM_ACCEPTOR_COUNT>
3

> <JCHEM_DONOR_COUNT>
1

> <JCHEM_ACIDIC_PKA>
2.79

> <JCHEM_BASIC_PKA>
-6.3

> <JCHEM_PHYSIOLOGICAL_CHARGE>
-1

> <ALOGPS_LOGP>
2.86

> <JCHEM_LOGP>
1.98

> <ALOGPS_LOGS>
-3.6

> <JCHEM_POLARIZABILITY>
12.38

> <JCHEM_POLAR_SURFACE_AREA>
60.36

> <JCHEM_REFRACTIVITY>
46.13

> <JCHEM_ROTATABLE_BOND_COUNT>
2

> <ALOGPS_SOLUBILITY>
6.86e-02 g/l __ 

$$$$
