
  Mrv0541 02231215492D          

  6  5  0  0  0  0            999 V2000
   -0.1914    0.7145    0.0000 N   0  0  0  0  0  0  0  0  0  0  0  0
    0.5230    1.1270    0.0000 C   0  0  0  0  0  0  0  0  0  0  0  0
    1.2375    0.7145    0.0000 C   0  0  0  0  0  0  0  0  0  0  0  0
    1.9520    1.1270    0.0000 C   0  0  0  0  0  0  0  0  0  0  0  0
    2.6664    0.7145    0.0000 C   0  0  0  0  0  0  0  0  0  0  0  0
    3.3809    1.1270    0.0000 N   0  0  0  0  0  0  0  0  0  0  0  0
  1  2  1  0  0  0  0
  2  3  1  0  0  0  0
  3  4  1  0  0  0  0
  4  5  1  0  0  0  0
  5  6  1  0  0  0  0
M  END
> <DRUGBANK_ID>
DB01917

> <DRUG_GROUPS>
experimental

> <GENERIC_NAME>
Putrescine

> <CHEMICAL_FORMULA>
C4H12N2

> <MOLECULAR_WEIGHT>
88.1515

> <EXACT_MASS>
88.100048394

> <IUPAC_NAME>
butane-1,4-diamine

> <IUPAC_TRADITIONAL_NAME>
putrescine

> <INCHI_IDENTIFIER>
InChI=1S/C4H12N2/c5-3-1-2-4-6/h1-6H2

> <INCHI_KEY>
InChIKey=KIDHWZJUCRJVML-UHFFFAOYSA-N

> <SMILES>
NCCCCN

> <JCHEM_ACCEPTOR_COUNT>
2

> <JCHEM_DONOR_COUNT>
2

> <JCHEM_BASIC_PKA>
10.51

> <JCHEM_PHYSIOLOGICAL_CHARGE>
2

> <ALOGPS_LOGP>
-0.98

> <JCHEM_LOGP>
-0.85

> <ALOGPS_LOGS>
0.43

> <JCHEM_POLARIZABILITY>
11.07

> <JCHEM_POLAR_SURFACE_AREA>
52.04

> <JCHEM_REFRACTIVITY>
27.38

> <JCHEM_ROTATABLE_BOND_COUNT>
3

> <ALOGPS_SOLUBILITY>
2.36e+02 g/l __ 

$$$$
