
  Mrv0541 02231215482D          

 15 15  0  0  1  0            999 V2000
    1.5783    2.2433    0.0000 N   0  0  0  0  0  0  0  0  0  0  0  0
    2.1913    1.6913    0.0000 C   0  0  1  0  0  0  0  0  0  0  0  0
    2.0198    0.8843    0.0000 C   0  0  0  0  0  0  0  0  0  0  0  0
    1.2352    0.6294    0.0000 C   0  0  0  0  0  0  0  0  0  0  0  0
    0.9803   -0.1553    0.0000 C   0  0  0  0  0  0  0  0  0  0  0  0
    0.1553   -0.1553    0.0000 N   0  3  0  0  0  0  0  0  0  0  0  0
   -0.0997    0.6294    0.0000 C   0  0  0  0  0  0  0  0  0  0  0  0
    0.5678    1.1143    0.0000 N   0  0  0  0  0  0  0  0  0  0  0  0
    0.5678    1.9393    0.0000 P   0  0  0  0  0  0  0  0  0  0  0  0
    0.5678    2.7643    0.0000 O   0  0  0  0  0  0  0  0  0  0  0  0
   -0.2572    1.9393    0.0000 O   0  0  0  0  0  0  0  0  0  0  0  0
    1.3928    1.9393    0.0000 O   0  0  0  0  0  0  0  0  0  0  0  0
    2.9760    1.9462    0.0000 C   0  0  0  0  0  0  0  0  0  0  0  0
    3.1475    2.7532    0.0000 O   0  0  0  0  0  0  0  0  0  0  0  0
    3.5891    1.3942    0.0000 O   0  0  0  0  0  0  0  0  0  0  0  0
  2  1  1  6  0  0  0
  2  3  1  0  0  0  0
  3  4  1  0  0  0  0
  4  5  2  0  0  0  0
  5  6  1  0  0  0  0
  6  7  2  0  0  0  0
  7  8  1  0  0  0  0
  4  8  1  0  0  0  0
  8  9  1  0  0  0  0
  9 10  1  0  0  0  0
  9 11  1  0  0  0  0
  9 12  2  0  0  0  0
  2 13  1  0  0  0  0
 13 14  1  0  0  0  0
 13 15  2  0  0  0  0
M  END
> <DRUGBANK_ID>
DB01899

> <DRUG_GROUPS>
experimental

> <GENERIC_NAME>
Nd1-Phosphonohistidine

> <CHEMICAL_FORMULA>
C6H11N3O5P

> <MOLECULAR_WEIGHT>
236.1424

> <EXACT_MASS>
236.043631989

> <IUPAC_NAME>
5-[(2S)-2-amino-2-carboxyethyl]-1-phosphono-1H-imidazol-3-ium

> <IUPAC_TRADITIONAL_NAME>
nd1-phosphonohistidine

> <INCHI_IDENTIFIER>
InChI=1S/C6H10N3O5P/c7-5(6(10)11)1-4-2-8-3-9(4)15(12,13)14/h2-3,5H,1,7H2,(H,10,11)(H2,12,13,14)/p+1/t5-/m0/s1

> <INCHI_KEY>
InChIKey=VOHVXLVXSYAFOA-YFKPBYRVSA-O

> <SMILES>
N[C@@H](CC1=C[NH+]=CN1P(O)(O)=O)C(O)=O

> <JCHEM_ACCEPTOR_COUNT>
6

> <JCHEM_DONOR_COUNT>
5

> <JCHEM_ACIDIC_PKA>
0.56

> <JCHEM_BASIC_PKA>
8.98

> <JCHEM_PHYSIOLOGICAL_CHARGE>
-2

> <ALOGPS_LOGP>
-1.7

> <JCHEM_LOGP>
-6

> <ALOGPS_LOGS>
-2.2

> <JCHEM_POLARIZABILITY>
19.8

> <JCHEM_POLAR_SURFACE_AREA>
139.92

> <JCHEM_REFRACTIVITY>
49.1

> <JCHEM_ROTATABLE_BOND_COUNT>
4

> <ALOGPS_SOLUBILITY>
1.79e+00 g/l __ 

$$$$
