
  Mrv0541 02231215422D          

 37 41  0  0  1  0            999 V2000
   -2.7512   -2.5366    0.0000 C   0  0  0  0  0  0  0  0  0  0  0  0
   -2.7512   -1.7116    0.0000 C   0  0  2  0  0  0  0  0  0  0  0  0
   -2.0367   -1.2991    0.0000 N   0  0  0  0  0  0  0  0  0  0  0  0
   -1.3222   -1.7116    0.0000 C   0  0  0  0  0  0  0  0  0  0  0  0
   -0.6078   -1.2991    0.0000 N   0  0  0  0  0  0  0  0  0  0  0  0
    0.1067   -1.7116    0.0000 C   0  0  0  0  0  0  0  0  0  0  0  0
    0.1067   -2.5366    0.0000 C   0  0  0  0  0  0  0  0  0  0  0  0
   -0.6078   -2.9491    0.0000 C   0  0  0  0  0  0  0  0  0  0  0  0
   -1.3222   -2.5366    0.0000 N   0  0  0  0  0  0  0  0  0  0  0  0
   -0.6078   -3.7741    0.0000 C   0  0  0  0  0  0  0  0  0  0  0  0
    0.0597   -4.2590    0.0000 C   0  0  0  0  0  0  0  0  0  0  0  0
   -0.1953   -5.0437    0.0000 N   0  0  0  0  0  0  0  0  0  0  0  0
   -1.0203   -5.0437    0.0000 C   0  0  0  0  0  0  0  0  0  0  0  0
   -1.5052   -5.7111    0.0000 C   0  0  0  0  0  0  0  0  0  0  0  0
   -1.1696   -6.4648    0.0000 C   0  0  0  0  0  0  0  0  0  0  0  0
   -1.6546   -7.1322    0.0000 C   0  0  0  0  0  0  0  0  0  0  0  0
   -2.4750   -7.0460    0.0000 N   0  0  0  0  0  0  0  0  0  0  0  0
   -2.8106   -6.2923    0.0000 C   0  0  0  0  0  0  0  0  0  0  0  0
   -2.3257   -5.6249    0.0000 C   0  0  0  0  0  0  0  0  0  0  0  0
   -1.2752   -4.2590    0.0000 N   0  0  0  0  0  0  0  0  0  0  0  0
   -2.0598   -4.0041    0.0000 C   0  0  0  0  0  0  0  0  0  0  0  0
    0.8443   -4.0041    0.0000 C   0  0  0  0  0  0  0  0  0  0  0  0
    1.0158   -3.1971    0.0000 C   0  0  0  0  0  0  0  0  0  0  0  0
    1.8004   -2.9422    0.0000 C   0  0  0  0  0  0  0  0  0  0  0  0
    2.4135   -3.4942    0.0000 C   0  0  0  0  0  0  0  0  0  0  0  0
    2.2420   -4.3012    0.0000 C   0  0  0  0  0  0  0  0  0  0  0  0
    1.4574   -4.5561    0.0000 C   0  0  0  0  0  0  0  0  0  0  0  0
    1.9720   -2.1352    0.0000 C   0  0  0  0  0  0  0  0  0  0  0  0
    2.1435   -1.3282    0.0000 F   0  0  0  0  0  0  0  0  0  0  0  0
    2.7789   -2.3067    0.0000 F   0  0  0  0  0  0  0  0  0  0  0  0
    1.1650   -1.9637    0.0000 F   0  0  0  0  0  0  0  0  0  0  0  0
   -3.4656   -1.2991    0.0000 C   0  0  0  0  0  0  0  0  0  0  0  0
   -4.1801   -1.7116    0.0000 C   0  0  0  0  0  0  0  0  0  0  0  0
   -4.8946   -1.2991    0.0000 C   0  0  0  0  0  0  0  0  0  0  0  0
   -4.8946   -0.4741    0.0000 C   0  0  0  0  0  0  0  0  0  0  0  0
   -4.1801   -0.0616    0.0000 C   0  0  0  0  0  0  0  0  0  0  0  0
   -3.4656   -0.4741    0.0000 C   0  0  0  0  0  0  0  0  0  0  0  0
  2  1  1  1  0  0  0
  2  3  1  0  0  0  0
  3  4  1  0  0  0  0
  4  5  2  0  0  0  0
  5  6  1  0  0  0  0
  6  7  2  0  0  0  0
  7  8  1  0  0  0  0
  8  9  2  0  0  0  0
  4  9  1  0  0  0  0
  8 10  1  0  0  0  0
 10 11  2  0  0  0  0
 11 12  1  0  0  0  0
 12 13  2  0  0  0  0
 13 14  1  0  0  0  0
 14 15  1  0  0  0  0
 15 16  1  0  0  0  0
 16 17  1  0  0  0  0
 17 18  1  0  0  0  0
 18 19  1  0  0  0  0
 14 19  1  0  0  0  0
 13 20  1  0  0  0  0
 10 20  1  0  0  0  0
 20 21  1  0  0  0  0
 11 22  1  0  0  0  0
 22 23  2  0  0  0  0
 23 24  1  0  0  0  0
 24 25  2  0  0  0  0
 25 26  1  0  0  0  0
 26 27  2  0  0  0  0
 22 27  1  0  0  0  0
 24 28  1  0  0  0  0
 28 29  1  0  0  0  0
 28 30  1  0  0  0  0
 28 31  1  0  0  0  0
  2 32  1  0  0  0  0
 32 33  2  0  0  0  0
 33 34  1  0  0  0  0
 34 35  2  0  0  0  0
 35 36  1  0  0  0  0
 36 37  2  0  0  0  0
 32 37  1  0  0  0  0
M  END
> <DRUGBANK_ID>
DB01761

> <DRUG_GROUPS>
experimental

> <GENERIC_NAME>
4-[5-[2-(1-Phenyl-Ethylamino)-Pyrimidin-4-Yl]-1-Methyl-4-(3-Trifluoromethylphenyl)-1h-Imidazol-2-Yl]-Piperidine

> <CHEMICAL_FORMULA>
C28H29F3N6

> <MOLECULAR_WEIGHT>
506.5653

> <EXACT_MASS>
506.240579573

> <IUPAC_NAME>
4-[1-methyl-2-(piperidin-4-yl)-4-[3-(trifluoromethyl)phenyl]-1H-imidazol-5-yl]-N-[(1S)-1-phenylethyl]pyrimidin-2-amine

> <IUPAC_TRADITIONAL_NAME>
4-[3-methyl-2-(piperidin-4-yl)-5-[3-(trifluoromethyl)phenyl]imidazol-4-yl]-N-[(1S)-1-phenylethyl]pyrimidin-2-amine

> <INCHI_IDENTIFIER>
InChI=1S/C28H29F3N6/c1-18(19-7-4-3-5-8-19)34-27-33-16-13-23(35-27)25-24(21-9-6-10-22(17-21)28(29,30)31)36-26(37(25)2)20-11-14-32-15-12-20/h3-10,13,16-18,20,32H,11-12,14-15H2,1-2H3,(H,33,34,35)/t18-/m0/s1

> <INCHI_KEY>
InChIKey=QICPQLFMWYQJGX-SFHVURJKSA-N

> <SMILES>
C[C@H](NC1=NC=CC(=N1)C1=C(N=C(C2CCNCC2)N1C)C1=CC(=CC=C1)C(F)(F)F)C1=CC=CC=C1

> <JCHEM_ACCEPTOR_COUNT>
5

> <JCHEM_DONOR_COUNT>
2

> <JCHEM_ACIDIC_PKA>
14.11

> <JCHEM_BASIC_PKA>
10.02

> <JCHEM_PHYSIOLOGICAL_CHARGE>
1

> <ALOGPS_LOGP>
5.43

> <JCHEM_LOGP>
5.54

> <ALOGPS_LOGS>
-5.1

> <JCHEM_POLARIZABILITY>
53.39

> <JCHEM_POLAR_SURFACE_AREA>
67.66

> <JCHEM_REFRACTIVITY>
140

> <JCHEM_ROTATABLE_BOND_COUNT>
7

> <ALOGPS_SOLUBILITY>
4.38e-03 g/l __ 

$$$$
