
  Mrv0541 02231215412D          

 10  9  0  0  1  0            999 V2000
    1.9520    1.9520    0.0000 C   0  0  0  0  0  0  0  0  0  0  0  0
    1.9520    1.1270    0.0000 C   0  0  1  0  0  0  0  0  0  0  0  0
    1.2375    0.7145    0.0000 O   0  0  0  0  0  0  0  0  0  0  0  0
    0.5230    1.1270    0.0000 P   0  0  0  0  0  0  0  0  0  0  0  0
   -0.1914    1.5395    0.0000 O   0  0  0  0  0  0  0  0  0  0  0  0
    0.1105    0.4125    0.0000 O   0  0  0  0  0  0  0  0  0  0  0  0
    0.9355    1.8414    0.0000 O   0  0  0  0  0  0  0  0  0  0  0  0
    2.6664    0.7145    0.0000 C   0  0  0  0  0  0  0  0  0  0  0  0
    3.3809    1.1270    0.0000 O   0  0  0  0  0  0  0  0  0  0  0  0
    2.6664   -0.1105    0.0000 O   0  0  0  0  0  0  0  0  0  0  0  0
  2  1  1  6  0  0  0
  2  3  1  0  0  0  0
  3  4  1  0  0  0  0
  4  5  1  0  0  0  0
  4  6  1  0  0  0  0
  4  7  2  0  0  0  0
  2  8  1  0  0  0  0
  8  9  1  0  0  0  0
  8 10  2  0  0  0  0
M  END
> <DRUGBANK_ID>
DB01733

> <DRUG_GROUPS>
experimental

> <GENERIC_NAME>
L-Phospholactate

> <CHEMICAL_FORMULA>
C3H7O6P

> <MOLECULAR_WEIGHT>
170.0578

> <EXACT_MASS>
169.998024468

> <IUPAC_NAME>
(2R)-2-(phosphonooxy)propanoic acid

> <IUPAC_TRADITIONAL_NAME>
L-phospholactate

> <INCHI_IDENTIFIER>
InChI=1S/C3H7O6P/c1-2(3(4)5)9-10(6,7)8/h2H,1H3,(H,4,5)(H2,6,7,8)/t2-/m1/s1

> <INCHI_KEY>
InChIKey=CSZRNWHGZPKNKY-UWTATZPHSA-N

> <SMILES>
C[C@@H](OP(O)(O)=O)C(O)=O

> <JCHEM_ACCEPTOR_COUNT>
5

> <JCHEM_DONOR_COUNT>
3

> <JCHEM_ACIDIC_PKA>
1.13

> <JCHEM_PHYSIOLOGICAL_CHARGE>
-3

> <ALOGPS_LOGP>
-1.6

> <JCHEM_LOGP>
-0.6

> <ALOGPS_LOGS>
-0.91

> <JCHEM_POLARIZABILITY>
12.49

> <JCHEM_POLAR_SURFACE_AREA>
104.06

> <JCHEM_REFRACTIVITY>
29.71

> <JCHEM_ROTATABLE_BOND_COUNT>
3

> <ALOGPS_SOLUBILITY>
2.10e+01 g/l __ 

$$$$
