
  Mrv0541 02231215402D          

 29 28  0  0  1  0            999 V2000
   11.6605   -6.7322    0.0000 C   0  0  0  0  0  0  0  0  0  0  0  0
   12.3750   -7.1447    0.0000 C   0  0  0  0  0  0  0  0  0  0  0  0
   13.0895   -6.7322    0.0000 C   0  0  0  0  0  0  0  0  0  0  0  0
   13.8039   -7.1447    0.0000 C   0  0  0  0  0  0  0  0  0  0  0  0
   14.5184   -6.7322    0.0000 C   0  0  0  0  0  0  0  0  0  0  0  0
   15.2329   -7.1447    0.0000 C   0  0  0  0  0  0  0  0  0  0  0  0
   15.9474   -6.7322    0.0000 C   0  0  0  0  0  0  0  0  0  0  0  0
   16.6618   -7.1447    0.0000 C   0  0  0  0  0  0  0  0  0  0  0  0
   17.3763   -6.7322    0.0000 C   0  0  0  0  0  0  0  0  0  0  0  0
   18.0908   -7.1447    0.0000 C   0  0  0  0  0  0  0  0  0  0  0  0
   18.8052   -6.7322    0.0000 C   0  0  0  0  0  0  0  0  0  0  0  0
   19.5197   -7.1447    0.0000 C   0  0  0  0  0  0  0  0  0  0  0  0
   19.5197   -7.9697    0.0000 O   0  0  0  0  0  0  0  0  0  0  0  0
   20.2342   -6.7322    0.0000 O   0  0  0  0  0  0  0  0  0  0  0  0
   20.9487   -7.1447    0.0000 C   0  0  0  0  0  0  0  0  0  0  0  0
   21.6631   -6.7322    0.0000 C   0  0  2  0  0  0  0  0  0  0  0  0
   21.6631   -5.9072    0.0000 O   0  0  0  0  0  0  0  0  0  0  0  0
   22.3776   -7.1447    0.0000 C   0  0  0  0  0  0  0  0  0  0  0  0
   23.0921   -6.7322    0.0000 O   0  0  0  0  0  0  0  0  0  0  0  0
   23.8065   -7.1447    0.0000 P   0  0  1  0  0  0  0  0  0  0  0  0
   23.3940   -7.8592    0.0000 O   0  0  0  0  0  0  0  0  0  0  0  0
   24.2190   -6.4302    0.0000 O   0  0  0  0  0  0  0  0  0  0  0  0
   24.5210   -7.5572    0.0000 O   0  0  0  0  0  0  0  0  0  0  0  0
   25.2355   -7.1447    0.0000 C   0  0  0  0  0  0  0  0  0  0  0  0
   25.9499   -7.5572    0.0000 C   0  0  0  0  0  0  0  0  0  0  0  0
   26.6644   -7.1447    0.0000 N   0  3  0  0  0  0  0  0  0  0  0  0
   27.3789   -6.7322    0.0000 C   0  0  0  0  0  0  0  0  0  0  0  0
   27.0769   -7.8592    0.0000 C   0  0  0  0  0  0  0  0  0  0  0  0
   26.2519   -6.4302    0.0000 C   0  0  0  0  0  0  0  0  0  0  0  0
  1  2  1  0  0  0  0
  2  3  1  0  0  0  0
  3  4  1  0  0  0  0
  4  5  1  0  0  0  0
  5  6  1  0  0  0  0
  6  7  1  0  0  0  0
  7  8  1  0  0  0  0
  8  9  1  0  0  0  0
  9 10  1  0  0  0  0
 10 11  1  0  0  0  0
 11 12  1  0  0  0  0
 12 13  2  0  0  0  0
 12 14  1  0  0  0  0
 14 15  1  0  0  0  0
 15 16  1  0  0  0  0
 16 17  1  6  0  0  0
 16 18  1  0  0  0  0
 18 19  1  0  0  0  0
 20 19  1  1  0  0  0
 20 21  1  6  0  0  0
 20 22  2  0  0  0  0
 20 23  1  0  0  0  0
 23 24  1  0  0  0  0
 24 25  1  0  0  0  0
 25 26  1  0  0  0  0
 26 27  1  0  0  0  0
 26 28  1  0  0  0  0
 26 29  1  0  0  0  0
M  END
> <DRUGBANK_ID>
DB01707

> <DRUG_GROUPS>
experimental

> <GENERIC_NAME>
L-Alfa-Lysophosphatidylcholine, Lauroyl

> <CHEMICAL_FORMULA>
C20H43NO7P

> <MOLECULAR_WEIGHT>
440.5317

> <EXACT_MASS>
440.277714247

> <IUPAC_NAME>
[(2S)-3-(dodecanoyloxy)-2-hydroxypropoxy][2-(trimethylazaniumyl)ethoxy]phosphinic acid

> <IUPAC_TRADITIONAL_NAME>
(2S)-3-(dodecanoyloxy)-2-hydroxypropoxy(2-(trimethylaminio)ethoxy)phosphinic acid

> <INCHI_IDENTIFIER>
InChI=1S/C20H42NO7P/c1-5-6-7-8-9-10-11-12-13-14-20(23)26-17-19(22)18-28-29(24,25)27-16-15-21(2,3)4/h19,22H,5-18H2,1-4H3/p+1/t19-/m0/s1

> <INCHI_KEY>
InChIKey=BWKILASWCLJPBO-IBGZPJMESA-O

> <SMILES>
CCCCCCCCCCCC(=O)OC[C@H](O)CO[P@@](O)(=O)OCC[N+](C)(C)C

> <JCHEM_ACCEPTOR_COUNT>
4

> <JCHEM_DONOR_COUNT>
2

> <JCHEM_ACIDIC_PKA>
1.86

> <JCHEM_BASIC_PKA>
-3.4

> <JCHEM_PHYSIOLOGICAL_CHARGE>
0

> <ALOGPS_LOGP>
0.1

> <JCHEM_LOGP>
-0.59

> <ALOGPS_LOGS>
-5.5

> <JCHEM_POLARIZABILITY>
50.06

> <JCHEM_POLAR_SURFACE_AREA>
102.29

> <JCHEM_REFRACTIVITY>
124.99

> <JCHEM_ROTATABLE_BOND_COUNT>
20

> <ALOGPS_SOLUBILITY>
1.34e-03 g/l __ 

$$$$
