
  Mrv0541 09301311092D          

 41 44  0  0  0  0            999 V2000
   -3.6842    2.9386    0.0000 C   0  0  0  0  0  0  0  0  0  0  0  0
   -5.0820    3.2357    0.0000 C   0  0  0  0  0  0  0  0  0  0  0  0
   -5.2721    7.8862    0.0000 C   0  0  0  0  0  0  0  0  0  0  0  0
   -5.7570    7.2188    0.0000 C   0  0  0  0  0  0  0  0  0  0  0  0
   -4.4516    7.8000    0.0000 C   0  0  0  0  0  0  0  0  0  0  0  0
   -5.4214    6.4650    0.0000 C   0  0  0  0  0  0  0  0  0  0  0  0
   -4.1160    7.0463    0.0000 C   0  0  0  0  0  0  0  0  0  0  0  0
   -2.0607    5.7508    0.0000 C   0  0  0  0  0  0  0  0  0  0  0  0
   -3.0168    6.8127    0.0000 C   0  0  0  0  0  0  0  0  0  0  0  0
   -1.4476    6.3028    0.0000 C   0  0  0  0  0  0  0  0  0  0  0  0
   -2.4038    7.3647    0.0000 C   0  0  0  0  0  0  0  0  0  0  0  0
   -7.2887    6.0731    0.0000 C   0  0  0  0  0  0  0  0  0  0  0  0
   -7.1393    4.6520    0.0000 C   0  0  0  0  0  0  0  0  0  0  0  0
   -8.1092    5.9869    0.0000 C   0  0  0  0  0  0  0  0  0  0  0  0
   -7.9598    4.5658    0.0000 C   0  0  0  0  0  0  0  0  0  0  0  0
   -1.9432    4.6332    0.0000 C   0  0  0  0  0  0  0  0  0  0  0  0
   -2.6577    4.2207    0.0000 C   0  0  0  0  0  0  0  0  0  0  0  0
   -0.5143    4.6332    0.0000 C   0  0  0  0  0  0  0  0  0  0  0  0
    0.9146    4.6332    0.0000 C   0  0  0  0  0  0  0  0  0  0  0  0
   -4.2974    3.4907    0.0000 C   0  0  0  0  0  0  0  0  0  0  0  0
   -4.6009    6.3789    0.0000 C   0  0  0  0  0  0  0  0  0  0  0  0
   -2.8453    6.0057    0.0000 C   0  0  0  0  0  0  0  0  0  0  0  0
   -1.6191    7.1098    0.0000 C   0  0  0  0  0  0  0  0  0  0  0  0
   -6.8038    5.4057    0.0000 C   0  0  0  0  0  0  0  0  0  0  0  0
   -8.4446    5.2332    0.0000 C   0  0  0  0  0  0  0  0  0  0  0  0
   -1.2286    4.2207    0.0000 C   0  0  0  0  0  0  0  0  0  0  0  0
    0.2002    4.2207    0.0000 C   0  0  0  0  0  0  0  0  0  0  0  0
    1.6291    4.2207    0.0000 C   0  0  0  0  0  0  0  0  0  0  0  0
   -4.2654    5.6252    0.0000 C   0  0  0  0  0  0  0  0  0  0  0  0
   -4.6779    4.9107    0.0000 C   0  0  0  0  0  0  0  0  0  0  0  0
   -4.1259    4.2976    0.0000 C   0  0  0  0  0  0  0  0  0  0  0  0
   -3.4584    5.4537    0.0000 C   0  0  0  0  0  0  0  0  0  0  0  0
   -5.4984    4.8244    0.0000 C   0  0  0  0  0  0  0  0  0  0  0  0
   -1.0060    7.6618    0.0000 F   0  0  0  0  0  0  0  0  0  0  0  0
   -5.9833    5.4919    0.0000 N   0  0  0  0  0  0  0  0  0  0  0  0
   -3.3722    4.6332    0.0000 N   0  0  0  0  0  0  0  0  0  0  0  0
   -1.2286    3.3957    0.0000 O   0  0  0  0  0  0  0  0  0  0  0  0
    0.2002    3.3957    0.0000 O   0  0  0  0  0  0  0  0  0  0  0  0
    2.3436    4.6332    0.0000 O   0  0  0  0  0  0  0  0  0  0  0  0
   -5.8339    4.0708    0.0000 O   0  0  0  0  0  0  0  0  0  0  0  0
    1.6291    3.3956    0.0000 O   0  5  0  0  0  0  0  0  0  0  0  0
  4  3  2  0  0  0  0
  5  3  1  0  0  0  0
  6  4  1  0  0  0  0
  7  5  2  0  0  0  0
 10  8  1  0  0  0  0
 11  9  2  0  0  0  0
 14 12  1  0  0  0  0
 15 13  2  0  0  0  0
 17 16  1  0  0  0  0
 20  1  1  0  0  0  0
 20  2  1  0  0  0  0
 21  6  2  0  0  0  0
 21  7  1  0  0  0  0
 22  8  2  0  0  0  0
 22  9  1  0  0  0  0
 23 10  2  0  0  0  0
 23 11  1  0  0  0  0
 24 12  2  0  0  0  0
 24 13  1  0  0  0  0
 25 14  2  0  0  0  0
 25 15  1  0  0  0  0
 26 16  1  0  0  0  0
 26 18  1  0  0  0  0
 27 18  1  0  0  0  0
 27 19  1  0  0  0  0
 28 19  1  0  0  0  0
 29 21  1  0  0  0  0
 30 29  1  0  0  0  0
 31 20  1  0  0  0  0
 31 30  2  0  0  0  0
 32 22  1  0  0  0  0
 32 29  2  0  0  0  0
 33 30  1  0  0  0  0
 34 23  1  0  0  0  0
 35 24  1  0  0  0  0
 35 33  1  0  0  0  0
 36 17  1  0  0  0  0
 36 31  1  0  0  0  0
 36 32  1  0  0  0  0
 37 26  1  0  0  0  0
 38 27  1  0  0  0  0
 39 28  2  0  0  0  0
 40 33  2  0  0  0  0
 28 41  1  0  0  0  0
M  END
> <DRUGBANK_ID>
DB01076

> <DRUG_GROUPS>
approved

> <GENERIC_NAME>
Atorvastatin

> <SYNONYMS>


> <SALTS>
Atorvastatin Calcium

> <BRANDS>
Atogal; Cardyl; Faboxim; Hipolixan; Lipitor; Lipotropic; Liprimar; Lowden; Normalip; Sincol; Sortis; Torvacard; Torvast; Totalip; Tulip; Vastina; Xanator; Xarator; Zurinel

> <CHEMICAL_FORMULA>
C33H34FN2O5

> <MOLECULAR_WEIGHT>
557.6319

> <EXACT_MASS>
557.245175413

> <IUPAC_NAME>
7-[2-(4-fluorophenyl)-3-phenyl-4-(phenylcarbamoyl)-5-(propan-2-yl)-1H-pyrrol-1-yl]-3,5-dihydroxyheptanoate

> <IUPAC_TRADITIONAL_NAME>
7-[2-(4-fluorophenyl)-5-isopropyl-3-phenyl-4-(phenylcarbamoyl)pyrrol-1-yl]-3,5-dihydroxyheptanoate

> <INCHI_IDENTIFIER>
InChI=1/C33H35FN2O5/c1-21(2)31-30(33(41)35-25-11-7-4-8-12-25)29(22-9-5-3-6-10-22)32(23-13-15-24(34)16-14-23)36(31)18-17-26(37)19-27(38)20-28(39)40/h3-16,21,26-27,37-38H,17-20H2,1-2H3,(H,35,41)(H,39,40)/p-1

> <INCHI_KEY>
InChIKey=XUKUURHRXDUEBC-UHFFFAOYNA-M

> <SMILES>
CC(C)C1=C(C(=O)NC2=CC=CC=C2)C(=C(N1CCC(O)CC(O)CC([O-])=O)C1=CC=C(F)C=C1)C1=CC=CC=C1

> <JCHEM_ACCEPTOR_COUNT>
5

> <JCHEM_DONOR_COUNT>
3

> <JCHEM_ACIDIC_PKA>
4.33

> <JCHEM_BASIC_PKA>
-2.7

> <JCHEM_PHYSIOLOGICAL_CHARGE>
-1

> <ALOGPS_LOGP>
4.41

> <JCHEM_LOGP>
5.39

> <ALOGPS_LOGS>
-6.1

> <JCHEM_POLARIZABILITY>
59.7

> <JCHEM_POLAR_SURFACE_AREA>
114.62

> <JCHEM_REFRACTIVITY>
169.04

> <JCHEM_ROTATABLE_BOND_COUNT>
12

> <ALOGPS_SOLUBILITY>
4.95e-04 g/l __ 

$$$$
