1189
  Mrv0541 02231215182D          

 10  9  0  0  1  0            999 V2000
    3.0791    0.9760    0.0000 F   0  0  0  0  0  0  0  0  0  0  0  0
    1.6500   -0.6740    0.0000 F   0  0  0  0  0  0  0  0  0  0  0  0
    1.9520    0.4529    0.0000 F   0  0  0  0  0  0  0  0  0  0  0  0
    2.7770   -0.9760    0.0000 F   0  0  0  0  0  0  0  0  0  0  0  0
    5.2224   -0.2615    0.0000 F   0  0  0  0  0  0  0  0  0  0  0  0
    4.5080    0.9760    0.0000 F   0  0  0  0  0  0  0  0  0  0  0  0
    3.7935   -0.2615    0.0000 O   0  0  0  0  0  0  0  0  0  0  0  0
    3.0791    0.1510    0.0000 C   0  0  0  0  0  0  0  0  0  0  0  0
    2.3645   -0.2615    0.0000 C   0  0  0  0  0  0  0  0  0  0  0  0
    4.5080    0.1510    0.0000 C   0  0  0  0  0  0  0  0  0  0  0  0
  1  8  1  0  0  0  0
  2  9  1  0  0  0  0
  3  9  1  0  0  0  0
  4  9  1  0  0  0  0
  5 10  1  0  0  0  0
  6 10  1  0  0  0  0
  7  8  1  0  0  0  0
  7 10  1  0  0  0  0
  8  9  1  0  0  0  0
M  END
> <DRUGBANK_ID>
DB01189

> <DRUG_GROUPS>
approved

> <GENERIC_NAME>
Desflurane

> <SYNONYMS>
Desflurano; Desfluranum

> <BRANDS>
Suprane

> <CHEMICAL_FORMULA>
C3H2F6O

> <MOLECULAR_WEIGHT>
168.0378

> <EXACT_MASS>
168.000983916

> <IUPAC_NAME>
2-(difluoromethoxy)-1,1,1,2-tetrafluoroethane

> <IUPAC_TRADITIONAL_NAME>
desflurane

> <INCHI_IDENTIFIER>
InChI=1S/C3H2F6O/c4-1(3(7,8)9)10-2(5)6/h1-2H

> <INCHI_KEY>
InChIKey=DPYMFVXJLLWWEU-UHFFFAOYSA-N

> <SMILES>
FC(F)OC(F)C(F)(F)F

> <JCHEM_ACCEPTOR_COUNT>
1

> <JCHEM_DONOR_COUNT>
0

> <JCHEM_ACIDIC_PKA>
18.87

> <JCHEM_BASIC_PKA>
-4.8

> <JCHEM_PHYSIOLOGICAL_CHARGE>
0

> <ALOGPS_LOGP>
2.19

> <JCHEM_LOGP>
2.4

> <ALOGPS_LOGS>
-1.7

> <JCHEM_POLARIZABILITY>
7.89

> <JCHEM_POLAR_SURFACE_AREA>
9.23

> <JCHEM_REFRACTIVITY>
18.12

> <JCHEM_ROTATABLE_BOND_COUNT>
3

> <ALOGPS_SOLUBILITY>
3.54e+00 g/l __ 

$$$$
