
  Mrv0541 02231215492D          

 45 48  0  0  1  0            999 V2000
    1.5971   -3.0967    0.0000 C   0  0  0  0  0  0  0  0  0  0  0  0
    0.8826   -2.6842    0.0000 C   0  0  0  0  0  0  0  0  0  0  0  0
    0.1681   -3.0967    0.0000 O   0  0  0  0  0  0  0  0  0  0  0  0
    0.8826   -1.8592    0.0000 N   0  0  0  0  0  0  0  0  0  0  0  0
    1.5971   -1.4467    0.0000 C   0  0  1  0  0  0  0  0  0  0  0  0
    1.5971   -0.6217    0.0000 C   0  0  0  0  0  0  0  0  0  0  0  0
    0.8826   -0.2092    0.0000 C   0  0  0  0  0  0  0  0  0  0  0  0
    0.1681   -0.6217    0.0000 C   0  0  0  0  0  0  0  0  0  0  0  0
   -0.5463   -0.2092    0.0000 C   0  0  0  0  0  0  0  0  0  0  0  0
   -0.5463    0.6158    0.0000 C   0  0  0  0  0  0  0  0  0  0  0  0
   -1.2608    1.0283    0.0000 O   0  0  0  0  0  0  0  0  0  0  0  0
   -1.2608    1.8533    0.0000 C   0  0  0  0  0  0  0  0  0  0  0  0
   -1.9753    2.2658    0.0000 C   0  0  0  0  0  0  0  0  0  0  0  0
   -1.9753    3.0908    0.0000 O   0  0  0  0  0  0  0  0  0  0  0  0
   -2.6897    1.8533    0.0000 O   0  0  0  0  0  0  0  0  0  0  0  0
    0.1681    1.0283    0.0000 C   0  0  0  0  0  0  0  0  0  0  0  0
    0.8826    0.6158    0.0000 C   0  0  0  0  0  0  0  0  0  0  0  0
    0.1681    1.8533    0.0000 P   0  0  0  0  0  0  0  0  0  0  0  0
    0.1681    2.6783    0.0000 O   0  0  0  0  0  0  0  0  0  0  0  0
    0.9931    1.8533    0.0000 O   0  0  0  0  0  0  0  0  0  0  0  0
   -0.6569    1.8533    0.0000 O   0  0  0  0  0  0  0  0  0  0  0  0
    2.3116   -1.8592    0.0000 C   0  0  0  0  0  0  0  0  0  0  0  0
    3.0260   -1.4467    0.0000 O   0  0  0  0  0  0  0  0  0  0  0  0
    2.3116   -2.6842    0.0000 N   0  0  0  0  0  0  0  0  0  0  0  0
    3.0260   -3.0967    0.0000 C   0  0  2  0  0  0  0  0  0  0  0  0
    3.7077   -2.6319    0.0000 C   0  0  0  0  0  0  0  0  0  0  0  0
    4.4960   -2.8751    0.0000 C   0  0  0  0  0  0  0  0  0  0  0  0
    4.7974   -3.6431    0.0000 C   0  0  0  0  0  0  0  0  0  0  0  0
    4.3849   -4.3575    0.0000 C   0  0  0  0  0  0  0  0  0  0  0  0
    3.5691   -4.4805    0.0000 N   0  0  0  0  0  0  0  0  0  0  0  0
    3.3260   -5.2688    0.0000 C   0  0  0  0  0  0  0  0  0  0  0  0
    3.8871   -5.8736    0.0000 C   0  0  0  0  0  0  0  0  0  0  0  0
    4.6914   -5.6900    0.0000 C   0  0  0  0  0  0  0  0  0  0  0  0
    5.2526   -6.2948    0.0000 C   0  0  0  0  0  0  0  0  0  0  0  0
    5.0094   -7.0831    0.0000 C   0  0  0  0  0  0  0  0  0  0  0  0
    4.2051   -7.2667    0.0000 C   0  0  0  0  0  0  0  0  0  0  0  0
    3.6439   -6.6620    0.0000 C   0  0  0  0  0  0  0  0  0  0  0  0
    5.5705   -7.6879    0.0000 C   0  0  0  0  0  0  0  0  0  0  0  0
    6.3749   -7.5043    0.0000 C   0  0  0  0  0  0  0  0  0  0  0  0
    6.9360   -8.1091    0.0000 C   0  0  0  0  0  0  0  0  0  0  0  0
    6.6928   -8.8974    0.0000 C   0  0  0  0  0  0  0  0  0  0  0  0
    5.8885   -9.0810    0.0000 C   0  0  0  0  0  0  0  0  0  0  0  0
    5.3274   -8.4763    0.0000 C   0  0  0  0  0  0  0  0  0  0  0  0
    2.9644   -3.9193    0.0000 C   0  0  0  0  0  0  0  0  0  0  0  0
    2.1964   -4.2208    0.0000 O   0  0  0  0  0  0  0  0  0  0  0  0
  1  2  1  0  0  0  0
  2  3  2  0  0  0  0
  2  4  1  0  0  0  0
  5  4  1  1  0  0  0
  5  6  1  0  0  0  0
  6  7  1  0  0  0  0
  7  8  2  0  0  0  0
  8  9  1  0  0  0  0
  9 10  2  0  0  0  0
 10 11  1  0  0  0  0
 11 12  1  0  0  0  0
 12 13  1  0  0  0  0
 13 14  1  0  0  0  0
 13 15  2  0  0  0  0
 10 16  1  0  0  0  0
 16 17  2  0  0  0  0
  7 17  1  0  0  0  0
 16 18  1  0  0  0  0
 18 19  1  0  0  0  0
 18 20  1  0  0  0  0
 18 21  2  0  0  0  0
  5 22  1  0  0  0  0
 22 23  2  0  0  0  0
 22 24  1  0  0  0  0
 25 24  1  6  0  0  0
 25 26  1  0  0  0  0
 26 27  1  0  0  0  0
 27 28  1  0  0  0  0
 28 29  1  0  0  0  0
 29 30  1  0  0  0  0
 30 31  1  0  0  0  0
 31 32  1  0  0  0  0
 32 33  2  0  0  0  0
 33 34  1  0  0  0  0
 34 35  2  0  0  0  0
 35 36  1  0  0  0  0
 36 37  2  0  0  0  0
 32 37  1  0  0  0  0
 35 38  1  0  0  0  0
 38 39  2  0  0  0  0
 39 40  1  0  0  0  0
 40 41  2  0  0  0  0
 41 42  1  0  0  0  0
 42 43  2  0  0  0  0
 38 43  1  0  0  0  0
 30 44  1  0  0  0  0
 25 44  1  0  0  0  0
 44 45  2  0  0  0  0
M  END
> <DRUGBANK_ID>
DB01908

> <DRUG_GROUPS>
experimental

> <GENERIC_NAME>
RU85493

> <CHEMICAL_FORMULA>
C32H36N3O9P

> <MOLECULAR_WEIGHT>
637.6167

> <EXACT_MASS>
637.218916277

> <IUPAC_NAME>
2-{4-[(2S)-2-acetamido-2-{[(3R)-2-oxo-1-[(4-phenylphenyl)methyl]azepan-3-yl]carbamoyl}ethyl]-2-phosphonophenoxy}acetic acid

> <IUPAC_TRADITIONAL_NAME>
4-[(2S)-2-acetamido-2-{[(3R)-2-oxo-1-[(4-phenylphenyl)methyl]azepan-3-yl]carbamoyl}ethyl]-2-phosphonophenoxyacetic acid

> <INCHI_IDENTIFIER>
InChI=1S/C32H36N3O9P/c1-21(36)33-27(17-23-12-15-28(44-20-30(37)38)29(18-23)45(41,42)43)31(39)34-26-9-5-6-16-35(32(26)40)19-22-10-13-25(14-11-22)24-7-3-2-4-8-24/h2-4,7-8,10-15,18,26-27H,5-6,9,16-17,19-20H2,1H3,(H,33,36)(H,34,39)(H,37,38)(H2,41,42,43)/t26-,27+/m1/s1

> <INCHI_KEY>
InChIKey=MWEWSHNGVWABKG-SXOMAYOGSA-N

> <SMILES>
CC(=O)N[C@@H](CC1=CC=C(OCC(O)=O)C(=C1)P(O)(O)=O)C(=O)N[C@@H]1CCCCN(CC2=CC=C(C=C2)C2=CC=CC=C2)C1=O

> <JCHEM_ACCEPTOR_COUNT>
9

> <JCHEM_DONOR_COUNT>
5

> <JCHEM_ACIDIC_PKA>
1.61

> <JCHEM_BASIC_PKA>
-1.4

> <JCHEM_PHYSIOLOGICAL_CHARGE>
-3

> <ALOGPS_LOGP>
2.01

> <JCHEM_LOGP>
1.63

> <ALOGPS_LOGS>
-5.7

> <JCHEM_POLARIZABILITY>
65.52

> <JCHEM_POLAR_SURFACE_AREA>
182.57

> <JCHEM_REFRACTIVITY>
164.35

> <JCHEM_ROTATABLE_BOND_COUNT>
12

> <ALOGPS_SOLUBILITY>
1.16e-03 g/l __ 

$$$$
