1249
  Mrv0541 02231215212D          

 62 63  0  0  1  0            999 V2000
    7.0944    2.3472    0.0000 I   0  0  0  0  0  0  0  0  0  0  0  0
    3.5220   -1.3654    0.0000 I   0  0  0  0  0  0  0  0  0  0  0  0
    8.5234   -0.1279    0.0000 I   0  0  0  0  0  0  0  0  0  0  0  0
    6.3799   -1.3654    0.0000 I   0  0  0  0  0  0  0  0  0  0  0  0
    9.9524    2.3472    0.0000 I   0  0  0  0  0  0  0  0  0  0  0  0
    4.9509   -3.8405    0.0000 I   0  0  0  0  0  0  0  0  0  0  0  0
    4.9509    1.1096    0.0000 O   0  0  0  0  0  0  0  0  0  0  0  0
    6.3799   -0.5404    0.0000 O   0  0  0  0  0  0  0  0  0  0  0  0
    3.5220   -0.5404    0.0000 O   0  0  0  0  0  0  0  0  0  0  0  0
    9.9524   -0.1279    0.0000 O   0  0  0  0  0  0  0  0  0  0  0  0
    7.0944   -2.6029    0.0000 O   0  0  0  0  0  0  0  0  0  0  0  0
    7.8089    3.5847    0.0000 O   0  0  0  0  0  0  0  0  0  0  0  0
    2.8075   -2.6029    0.0000 O   0  0  0  0  0  0  0  0  0  0  0  0
   12.0958    1.9347    0.0000 O   0  0  0  0  0  0  0  0  0  0  0  0
    6.3799   -5.4905    0.0000 O   0  0  0  0  0  0  0  0  0  0  0  0
   10.6668    4.4097    0.0000 O   0  0  0  0  0  0  0  0  0  0  0  0
    3.5220   -5.4905    0.0000 O   0  0  0  0  0  0  0  0  0  0  0  0
   13.5248    1.1096    0.0000 O   0  0  0  0  0  0  0  0  0  0  0  0
    7.8089   -6.3155    0.0000 O   0  0  0  0  0  0  0  0  0  0  0  0
   10.6668    6.0598    0.0000 O   0  0  0  0  0  0  0  0  0  0  0  0
    2.0930   -6.3155    0.0000 O   0  0  0  0  0  0  0  0  0  0  0  0
    7.0944    0.6971    0.0000 N   0  0  0  0  0  0  0  0  0  0  0  0
    4.9509   -0.5404    0.0000 N   0  0  0  0  0  0  0  0  0  0  0  0
   10.6668    1.1096    0.0000 N   0  0  0  0  0  0  0  0  0  0  0  0
    6.3799   -3.8405    0.0000 N   0  0  0  0  0  0  0  0  0  0  0  0
    9.2379    3.5847    0.0000 N   0  0  0  0  0  0  0  0  0  0  0  0
    3.5220   -3.8405    0.0000 N   0  0  0  0  0  0  0  0  0  0  0  0
    5.6655    0.6971    0.0000 C   0  0  0  0  0  0  0  0  0  0  0  0
    6.3799    1.1096    0.0000 C   0  0  0  0  0  0  0  0  0  0  0  0
    5.6655   -0.1279    0.0000 C   0  0  0  0  0  0  0  0  0  0  0  0
    7.8089    1.1096    0.0000 C   0  0  0  0  0  0  0  0  0  0  0  0
    4.9509   -1.3654    0.0000 C   0  0  0  0  0  0  0  0  0  0  0  0
    7.0944   -0.1279    0.0000 C   0  0  0  0  0  0  0  0  0  0  0  0
    4.2365   -0.1279    0.0000 C   0  0  0  0  0  0  0  0  0  0  0  0
    7.8089    1.9347    0.0000 C   0  0  0  0  0  0  0  0  0  0  0  0
    4.2365   -1.7779    0.0000 C   0  0  0  0  0  0  0  0  0  0  0  0
    8.5234    0.6971    0.0000 C   0  0  0  0  0  0  0  0  0  0  0  0
    5.6655   -1.7779    0.0000 C   0  0  0  0  0  0  0  0  0  0  0  0
    8.5234    2.3472    0.0000 C   0  0  0  0  0  0  0  0  0  0  0  0
    4.2365   -2.6029    0.0000 C   0  0  0  0  0  0  0  0  0  0  0  0
    9.2379    1.1096    0.0000 C   0  0  0  0  0  0  0  0  0  0  0  0
    5.6655   -2.6029    0.0000 C   0  0  0  0  0  0  0  0  0  0  0  0
    9.2379    1.9347    0.0000 C   0  0  0  0  0  0  0  0  0  0  0  0
    4.9509   -3.0154    0.0000 C   0  0  0  0  0  0  0  0  0  0  0  0
    7.8089   -0.5404    0.0000 C   0  0  0  0  0  0  0  0  0  0  0  0
    4.2365    0.6971    0.0000 C   0  0  0  0  0  0  0  0  0  0  0  0
    9.9524    0.6971    0.0000 C   0  0  0  0  0  0  0  0  0  0  0  0
    6.3799   -3.0154    0.0000 C   0  0  0  0  0  0  0  0  0  0  0  0
    8.5234    3.1722    0.0000 C   0  0  0  0  0  0  0  0  0  0  0  0
    3.5220   -3.0154    0.0000 C   0  0  0  0  0  0  0  0  0  0  0  0
   11.3814    0.6971    0.0000 C   0  0  0  0  0  0  0  0  0  0  0  0
    7.0944   -4.2530    0.0000 C   0  0  0  0  0  0  0  0  0  0  0  0
    9.2379    4.4097    0.0000 C   0  0  0  0  0  0  0  0  0  0  0  0
    2.8075   -4.2530    0.0000 C   0  0  0  0  0  0  0  0  0  0  0  0
   12.0958    1.1096    0.0000 C   0  0  0  0  0  0  0  0  0  0  0  0
    7.0944   -5.0780    0.0000 C   0  0  0  0  0  0  0  0  0  0  0  0
    9.9524    4.8222    0.0000 C   0  0  0  0  0  0  0  0  0  0  0  0
    2.8075   -5.0780    0.0000 C   0  0  0  0  0  0  0  0  0  0  0  0
   12.8103    0.6971    0.0000 C   0  0  0  0  0  0  0  0  0  0  0  0
    7.8089   -5.4905    0.0000 C   0  0  0  0  0  0  0  0  0  0  0  0
    9.9524    5.6472    0.0000 C   0  0  0  0  0  0  0  0  0  0  0  0
    2.0930   -5.4905    0.0000 C   0  0  0  0  0  0  0  0  0  0  0  0
  1 35  1  0  0  0  0
  2 36  1  0  0  0  0
  3 37  1  0  0  0  0
  4 38  1  0  0  0  0
  5 43  1  0  0  0  0
  6 44  1  0  0  0  0
  7 28  1  0  0  0  0
  8 33  2  0  0  0  0
  9 34  2  0  0  0  0
 10 47  2  0  0  0  0
 11 48  2  0  0  0  0
 12 49  2  0  0  0  0
 13 50  2  0  0  0  0
 14 55  1  0  0  0  0
 15 56  1  0  0  0  0
 16 57  1  0  0  0  0
 17 58  1  0  0  0  0
 18 59  1  0  0  0  0
 19 60  1  0  0  0  0
 20 61  1  0  0  0  0
 21 62  1  0  0  0  0
 22 29  1  0  0  0  0
 22 31  1  0  0  0  0
 22 33  1  0  0  0  0
 23 30  1  0  0  0  0
 23 32  1  0  0  0  0
 23 34  1  0  0  0  0
 24 47  1  0  0  0  0
 24 51  1  0  0  0  0
 25 48  1  0  0  0  0
 25 52  1  0  0  0  0
 26 49  1  0  0  0  0
 26 53  1  0  0  0  0
 27 50  1  0  0  0  0
 27 54  1  0  0  0  0
 28 29  1  0  0  0  0
 28 30  1  0  0  0  0
 31 35  2  0  0  0  0
 31 37  1  0  0  0  0
 32 36  2  0  0  0  0
 32 38  1  0  0  0  0
 33 45  1  0  0  0  0
 34 46  1  0  0  0  0
 35 39  1  0  0  0  0
 36 40  1  0  0  0  0
 37 41  2  0  0  0  0
 38 42  2  0  0  0  0
 39 43  2  0  0  0  0
 39 49  1  0  0  0  0
 40 44  2  0  0  0  0
 40 50  1  0  0  0  0
 41 43  1  0  0  0  0
 41 47  1  0  0  0  0
 42 44  1  0  0  0  0
 42 48  1  0  0  0  0
 51 55  1  0  0  0  0
 52 56  1  0  0  0  0
 53 57  1  0  0  0  0
 54 58  1  0  0  0  0
 55 59  1  0  0  0  0
 56 60  1  0  0  0  0
 57 61  1  0  0  0  0
 58 62  1  0  0  0  0
M  END
> <DRUGBANK_ID>
DB01249

> <DRUG_GROUPS>
approved

> <GENERIC_NAME>
Iodixanol

> <SYNONYMS>


> <BRANDS>


> <CHEMICAL_FORMULA>
C35H44I6N6O15

> <MOLECULAR_WEIGHT>
1550.1819

> <EXACT_MASS>
1549.713275288

> <IUPAC_NAME>
5-{N-[3-(N-{3,5-bis[(2,3-dihydroxypropyl)carbamoyl]-2,4,6-triiodophenyl}acetamido)-2-hydroxypropyl]acetamido}-1-N,3-N-bis(2,3-dihydroxypropyl)-2,4,6-triiodobenzene-1,3-dicarboxamide

> <IUPAC_TRADITIONAL_NAME>
iodixanol

> <INCHI_IDENTIFIER>
InChI=1S/C35H44I6N6O15/c1-13(52)46(30-26(38)20(32(59)42-3-15(54)9-48)24(36)21(27(30)39)33(60)43-4-16(55)10-49)7-19(58)8-47(14(2)53)31-28(40)22(34(61)44-5-17(56)11-50)25(37)23(29(31)41)35(62)45-6-18(57)12-51/h15-19,48-51,54-58H,3-12H2,1-2H3,(H,42,59)(H,43,60)(H,44,61)(H,45,62)

> <INCHI_KEY>
InChIKey=NBQNWMBBSKPBAY-UHFFFAOYSA-N

> <SMILES>
CC(=O)N(CC(O)CN(C(C)=O)C1=C(I)C(C(=O)NCC(O)CO)=C(I)C(C(=O)NCC(O)CO)=C1I)C1=C(I)C(C(=O)NCC(O)CO)=C(I)C(C(=O)NCC(O)CO)=C1I

> <JCHEM_ACCEPTOR_COUNT>
15

> <JCHEM_DONOR_COUNT>
13

> <JCHEM_ACIDIC_PKA>
11.43

> <JCHEM_BASIC_PKA>
-3.2

> <JCHEM_PHYSIOLOGICAL_CHARGE>
0

> <ALOGPS_LOGP>
-2.9

> <JCHEM_LOGP>
-2.1

> <ALOGPS_LOGS>
-3.9

> <JCHEM_POLARIZABILITY>
111.45

> <JCHEM_POLAR_SURFACE_AREA>
339.09

> <JCHEM_REFRACTIVITY>
277.16

> <JCHEM_ROTATABLE_BOND_COUNT>
22

> <ALOGPS_SOLUBILITY>
1.85e-01 g/l __ 

$$$$
