 
  Mrv0541 02231215222D          
 
 20 20  0  0  0  0            999 V2000
   13.2042   -9.1236    0.0000 C   0  0  0  0  0  0  0  0  0  0  0  0
   13.2042   -9.9486    0.0000 C   0  0  0  0  0  0  0  0  0  0  0  0
   13.9187  -10.3611    0.0000 N   0  0  0  0  0  0  0  0  0  0  0  0
   14.6330   -9.9486    0.0000 C   0  0  0  0  0  0  0  0  0  0  0  0
   14.6330   -9.1236    0.0000 N   0  0  0  0  0  0  0  0  0  0  0  0
   13.9187   -8.7112    0.0000 C   0  0  0  0  0  0  0  0  0  0  0  0
   12.4197   -8.8688    0.0000 N   0  5  0  0  0  0  0  0  0  0  0  0
   11.9348   -9.5361    0.0000 C   0  0  0  0  0  0  0  0  0  0  0  0
   12.4197  -10.2035    0.0000 N   0  0  0  0  0  0  0  0  0  0  0  0
   13.9187   -7.8863    0.0000 O   0  0  0  0  0  0  0  0  0  0  0  0
   15.3483  -10.3615    0.0000 O   0  0  0  0  0  0  0  0  0  0  0  0
   15.3483   -8.7108    0.0000 C   0  0  0  0  0  0  0  0  0  0  0  0
   13.9187  -11.1861    0.0000 C   0  0  0  0  0  0  0  0  0  0  0  0
   17.1672   -9.9413    0.0000 C   0  0  0  0  0  0  0  0  0  0  0  0
   17.8907   -9.5235    0.0000 N   0  3  0  0  0  0  0  0  0  0  0  0
   18.6142   -9.9413    0.0000 C   0  0  0  0  0  0  0  0  0  0  0  0
   19.3377   -9.5235    0.0000 C   0  0  0  0  0  0  0  0  0  0  0  0
   20.0611   -9.9413    0.0000 O   0  0  0  0  0  0  0  0  0  0  0  0
   17.8907   -8.6883    0.0000 C   0  0  0  0  0  0  0  0  0  0  0  0
   17.8907  -10.3590    0.0000 C   0  0  0  0  0  0  0  0  0  0  0  0
  1  2  2  0  0  0  0
  2  3  1  0  0  0  0
  3  4  1  0  0  0  0
  4  5  1  0  0  0  0
  5  6  1  0  0  0  0
  1  6  1  0  0  0  0
  1  7  1  0  0  0  0
  7  8  1  0  0  0  0
  8  9  2  0  0  0  0
  2  9  1  0  0  0  0
  6 10  2  0  0  0  0
  4 11  2  0  0  0  0
  5 12  1  0  0  0  0
  3 13  1  0  0  0  0
 14 15  1  0  0  0  0
 15 16  1  0  0  0  0
 16 17  1  0  0  0  0
 17 18  1  0  0  0  0
 15 19  1  0  0  0  0
 15 20  1  0  0  0  0
M  END
> <DRUGBANK_ID>
DB01303

> <DRUG_GROUPS>
approved

> <GENERIC_NAME>
Oxtriphylline

> <SYNONYMS>


> <BRANDS>
CHOLEDYL SA

> <CHEMICAL_FORMULA>
C12H21N5O3

> <MOLECULAR_WEIGHT>
283.3268

> <EXACT_MASS>
283.164439563

> <IUPAC_NAME>
(2-hydroxyethyl)trimethylazanium; 1,3-dimethyl-2,6-dioxo-2,3,6,7-tetrahydro-1H-purin-7-ide

> <IUPAC_TRADITIONAL_NAME>
1,3-dimethyl-2,6-dioxo-7H-purin-7-ide; choline

> <INCHI_IDENTIFIER>
InChI=1S/C7H8N4O2.C5H14NO/c1-10-5-4(8-3-9-5)6(12)11(2)7(10)13;1-6(2,3)4-5-7/h3H,1-2H3,(H,8,9,12);7H,4-5H2,1-3H3/q;+1/p-1

> <INCHI_KEY>
InChIKey=RLANKEDHRWMNRO-UHFFFAOYSA-M

> <SMILES>
C[N+](C)(C)CCO.CN1C2=C([N-]C=N2)C(=O)N(C)C1=O

> <JCHEM_ACCEPTOR_COUNT>
4

> <JCHEM_DONOR_COUNT>
0

> <JCHEM_ACIDIC_PKA>
7.82

> <JCHEM_BASIC_PKA>
-0.78

> <JCHEM_PHYSIOLOGICAL_CHARGE>
0

> <ALOGPS_LOGP>
-0.99

> <JCHEM_LOGP>
-0.77

> <ALOGPS_LOGS>
-1.9

> <JCHEM_POLARIZABILITY>
16.49

> <JCHEM_POLAR_SURFACE_AREA>
66.4

> <JCHEM_REFRACTIVITY>
45.51

> <JCHEM_ROTATABLE_BOND_COUNT>
2

> <ALOGPS_SOLUBILITY>
3.84e+00 g/l __ 

$$$$
