
  Mrv0541 02231215362D          

 43 46  0  0  0  0            999 V2000
    0.0000    0.0000    0.0000 Fe   0  2  0  0  0  0  0  0  0  0  0  0
    3.2733   -1.3576    0.0000 C    0  0  0  0  0  0  0  0  0  0  0  0
    3.9710   -0.9172    0.0000 C    0  0  0  0  0  0  0  0  0  0  0  0
    4.0247   -0.0939    0.0000 C    0  0  0  0  0  0  0  0  0  0  0  0
    3.3903    0.4334    0.0000 C    0  0  0  0  0  0  0  0  0  0  0  0
    3.5298    1.2465    0.0000 C    0  0  0  0  0  0  0  0  0  0  0  0
    2.8954    1.7739    0.0000 C    0  0  0  0  0  0  0  0  0  0  0  0
    2.1214    1.4882    0.0000 O    0  0  0  0  0  0  0  0  0  0  0  0
    3.0349    2.5870    0.0000 O    0  0  0  0  0  0  0  0  0  0  0  0
    4.8243    0.1093    0.0000 C    0  0  0  0  0  0  0  0  0  0  0  0
    5.3448    1.0468    0.0000 C    0  0  0  0  0  0  0  0  0  0  0  0
    6.0592    1.4595    0.0000 C    0  0  0  0  0  0  0  0  0  0  0  0
    6.6936    0.9321    0.0000 N    0  0  0  0  0  0  0  0  0  0  0  0
    7.3912    1.3725    0.0000 C    0  0  0  0  0  0  0  0  0  0  0  0
    8.3287    0.8520    0.0000 C    0  0  0  0  0  0  0  0  0  0  0  0
    8.7413    0.1376    0.0000 C    0  0  0  0  0  0  0  0  0  0  0  0
    9.5077   -0.1679    0.0000 C    0  0  0  0  0  0  0  0  0  0  0  0
   10.2053    0.2725    0.0000 C    0  0  0  0  0  0  0  0  0  0  0  0
   10.9355   -0.1115    0.0000 C    0  0  0  0  0  0  0  0  0  0  0  0
    9.4539   -0.9912    0.0000 C    0  0  0  0  0  0  0  0  0  0  0  0
   10.0884   -1.5186    0.0000 C    0  0  0  0  0  0  0  0  0  0  0  0
    8.6544   -1.1945    0.0000 C    0  0  0  0  0  0  0  0  0  0  0  0
    8.2140   -0.4968    0.0000 N    0  5  0  0  0  0  0  0  0  0  0  0
    8.1338   -2.1319    0.0000 C    0  0  0  0  0  0  0  0  0  0  0  0
    7.4195   -2.5446    0.0000 C    0  0  0  0  0  0  0  0  0  0  0  0
    6.7850   -2.0172    0.0000 N    0  0  0  0  0  0  0  0  0  0  0  0
    6.0874   -2.4576    0.0000 C    0  0  0  0  0  0  0  0  0  0  0  0
    5.1500   -1.9371    0.0000 C    0  0  0  0  0  0  0  0  0  0  0  0
    4.7373   -1.2227    0.0000 C    0  0  0  0  0  0  0  0  0  0  0  0
    5.2647   -0.5883    0.0000 N    0  5  0  0  0  0  0  0  0  0  0  0
    6.2907   -3.2572    0.0000 C    0  0  0  0  0  0  0  0  0  0  0  0
    5.7633   -3.8916    0.0000 C    0  0  0  0  0  0  0  0  0  0  0  0
    7.1140   -3.3109    0.0000 C    0  0  0  0  0  0  0  0  0  0  0  0
    7.5544   -4.0085    0.0000 C    0  0  0  0  0  0  0  0  0  0  0  0
    8.3787   -3.9760    0.0000 O    0  0  0  0  0  0  0  0  0  0  0  0
    7.1879    2.1721    0.0000 C    0  0  0  0  0  0  0  0  0  0  0  0
    7.7153    2.8065    0.0000 C    0  0  0  0  0  0  0  0  0  0  0  0
    6.3647    2.2258    0.0000 C    0  0  0  0  0  0  0  0  0  0  0  0
    5.9243    2.9234    0.0000 C    0  0  0  0  0  0  0  0  0  0  0  0
    5.0999    2.8908    0.0000 C    0  0  0  0  0  0  0  0  0  0  0  0
    4.6595    3.5884    0.0000 C    0  0  0  0  0  0  0  0  0  0  0  0
    3.8352    3.5558    0.0000 O    0  0  0  0  0  0  0  0  0  0  0  0
    5.0435    4.3187    0.0000 O    0  0  0  0  0  0  0  0  0  0  0  0
  2  3  1  0  0  0  0
  3  4  2  0  0  0  0
  4  5  1  0  0  0  0
  5  6  1  0  0  0  0
  6  7  1  0  0  0  0
  7  8  1  0  0  0  0
  7  9  2  0  0  0  0
  4 10  1  0  0  0  0
 10 11  2  0  0  0  0
 11 12  1  0  0  0  0
 12 13  2  0  0  0  0
 13 14  1  0  0  0  0
 14 15  2  0  0  0  0
 15 16  1  0  0  0  0
 16 17  2  0  0  0  0
 17 18  1  0  0  0  0
 18 19  2  0  0  0  0
 17 20  1  0  0  0  0
 20 21  1  0  0  0  0
 20 22  2  0  0  0  0
 22 23  1  0  0  0  0
 16 23  1  0  0  0  0
 22 24  1  0  0  0  0
 24 25  2  0  0  0  0
 25 26  1  0  0  0  0
 26 27  2  0  0  0  0
 27 28  1  0  0  0  0
 28 29  2  0  0  0  0
  3 29  1  0  0  0  0
 29 30  1  0  0  0  0
 10 30  1  0  0  0  0
 27 31  1  0  0  0  0
 31 32  1  0  0  0  0
 31 33  2  0  0  0  0
 25 33  1  0  0  0  0
 33 34  1  0  0  0  0
 34 35  2  0  0  0  0
 14 36  1  0  0  0  0
 36 37  1  0  0  0  0
 36 38  2  0  0  0  0
 12 38  1  0  0  0  0
 38 39  1  0  0  0  0
 39 40  1  0  0  0  0
 40 41  1  0  0  0  0
 41 42  1  0  0  0  0
 41 43  2  0  0  0  0
M  END
> <DRUGBANK_ID>
DB01636

> <DRUG_GROUPS>
experimental

> <GENERIC_NAME>
Clorocruoro Hem

> <CHEMICAL_FORMULA>
C33H30FeN4O5

> <MOLECULAR_WEIGHT>
618.46

> <EXACT_MASS>
618.156562223

> <IUPAC_NAME>
iron(2+) ion 4,20-bis(2-carboxyethyl)-9-ethenyl-14-formyl-5,10,15,19-tetramethyl-21,22,23,24-tetraazapentacyclo[16.2.1.1^{3,6}.1^{8,11}.1^{13,16}]tetracosa-1,3(24),4,6,8,10,12,14,16(22),17,19-undecaene-21,23-diide

> <IUPAC_TRADITIONAL_NAME>
iron ion(2+) 4,20-bis(2-carboxyethyl)-9-ethenyl-14-formyl-5,10,15,19-tetramethyl-21,22,23,24-tetraazapentacyclo[16.2.1.1^{3,6}.1^{8,11}.1^{13,16}]tetracosa-1,3(24),4,6,8,10,12,14,16(22),17,19-undecaene-21,23-diide

> <INCHI_IDENTIFIER>
InChI=1S/C33H32N4O5.Fe/c1-6-20-16(2)26-13-31-23(15-38)19(5)25(37-31)11-24-17(3)21(7-9-32(39)40)29(35-24)14-30-22(8-10-33(41)42)18(4)27(36-30)12-28(20)34-26;/h6,11-15H,1,7-10H2,2-5H3,(H4,34,35,36,37,38,39,40,41,42);/q;+2/p-2/b24-11-,25-11-,26-13-,27-12-,28-12-,29-14-,30-14-,31-13-;

> <INCHI_KEY>
InChIKey=DQEQQOZHKXGGJW-HLHPXMICSA-L

> <SMILES>
[Fe++].CC1=C(CCC(O)=O)/C2=C/C3=N/C(=C\C4=C(C=C)C(C)=C([N-]4)/C=C4\N=C(\C=C\1/[N-]\2)C(C)=C4C=O)/C(C)=C3CCC(O)=O

> <JCHEM_ACCEPTOR_COUNT>
9

> <JCHEM_DONOR_COUNT>
2

> <JCHEM_ACIDIC_PKA>
4.02

> <JCHEM_BASIC_PKA>
4.91

> <JCHEM_PHYSIOLOGICAL_CHARGE>
-2

> <ALOGPS_LOGP>
4.28

> <JCHEM_LOGP>
5.9

> <ALOGPS_LOGS>
-4.4

> <JCHEM_POLARIZABILITY>
63.86

> <JCHEM_POLAR_SURFACE_AREA>
143.23

> <JCHEM_REFRACTIVITY>
161.93

> <JCHEM_ROTATABLE_BOND_COUNT>
8

> <ALOGPS_SOLUBILITY>
2.66e-02 g/l __ 

$$$$
