1214
  Mrv0541 02231215192D          

 22 22  0  0  1  0            999 V2000
    3.0791   -0.4125    0.0000 O   0  0  0  0  0  0  0  0  0  0  0  0
    3.0791   -2.0625    0.0000 O   0  0  0  0  0  0  0  0  0  0  0  0
    3.0791    2.8876    0.0000 O   0  0  0  0  0  0  0  0  0  0  0  0
    4.5080    2.8876    0.0000 O   0  0  0  0  0  0  0  0  0  0  0  0
    4.5080   -2.8876    0.0000 N   0  0  0  0  0  0  0  0  0  0  0  0
    3.7935   -1.6500    0.0000 C   0  0  0  0  0  0  0  0  0  0  0  0
    4.5080   -2.0625    0.0000 C   0  0  0  0  0  0  0  0  0  0  0  0
    5.2224   -3.3001    0.0000 C   0  0  0  0  0  0  0  0  0  0  0  0
    3.7935   -0.8250    0.0000 C   0  0  0  0  0  0  0  0  0  0  0  0
    3.0791    0.4125    0.0000 C   0  0  0  0  0  0  0  0  0  0  0  0
    2.3645    0.8250    0.0000 C   0  0  0  0  0  0  0  0  0  0  0  0
    2.3645    1.6500    0.0000 C   0  0  0  0  0  0  0  0  0  0  0  0
    3.7935    1.6500    0.0000 C   0  0  0  0  0  0  0  0  0  0  0  0
    3.0791    2.0625    0.0000 C   0  0  0  0  0  0  0  0  0  0  0  0
    5.9370   -2.8876    0.0000 C   0  0  0  0  0  0  0  0  0  0  0  0
    5.2224   -4.1251    0.0000 C   0  0  0  0  0  0  0  0  0  0  0  0
    3.7935    0.8250    0.0000 C   0  0  0  0  0  0  0  0  0  0  0  0
    1.6500    0.4125    0.0000 C   0  0  0  0  0  0  0  0  0  0  0  0
    1.6500    2.0625    0.0000 C   0  0  0  0  0  0  0  0  0  0  0  0
    4.5080    2.0625    0.0000 C   0  0  0  0  0  0  0  0  0  0  0  0
    3.7935    3.3001    0.0000 C   0  0  0  0  0  0  0  0  0  0  0  0
    3.7935    4.1251    0.0000 C   0  0  0  0  0  0  0  0  0  0  0  0
  1  9  1  0  0  0  0
  1 10  1  0  0  0  0
  2  6  1  0  0  0  0
  3 14  1  0  0  0  0
  3 21  1  0  0  0  0
  4 21  2  0  0  0  0
  5  7  1  0  0  0  0
  5  8  1  0  0  0  0
  6  7  1  0  0  0  0
  6  9  1  0  0  0  0
  8 15  1  0  0  0  0
  8 16  1  0  0  0  0
 10 11  2  0  0  0  0
 10 17  1  0  0  0  0
 11 12  1  0  0  0  0
 11 18  1  0  0  0  0
 12 14  2  0  0  0  0
 12 19  1  0  0  0  0
 13 14  1  0  0  0  0
 13 17  2  0  0  0  0
 13 20  1  0  0  0  0
 21 22  1  0  0  0  0
M  END
> <DRUGBANK_ID>
DB01214

> <DRUG_GROUPS>
approved

> <GENERIC_NAME>
Metipranolol

> <SYNONYMS>
Metipranololum

> <SALTS>
Metipranolol hydrochloride

> <BRANDS>
Betanol; Disorat; OptiPranolol; Trimepranol

> <CHEMICAL_FORMULA>
C17H27NO4

> <MOLECULAR_WEIGHT>
309.4006

> <EXACT_MASS>
309.194008357

> <IUPAC_NAME>
4-{2-hydroxy-3-[(propan-2-yl)amino]propoxy}-2,3,6-trimethylphenyl acetate

> <IUPAC_TRADITIONAL_NAME>
metipranolol

> <INCHI_IDENTIFIER>
InChI=1S/C17H27NO4/c1-10(2)18-8-15(20)9-21-16-7-11(3)17(22-14(6)19)13(5)12(16)4/h7,10,15,18,20H,8-9H2,1-6H3

> <INCHI_KEY>
InChIKey=BQIPXWYNLPYNHW-UHFFFAOYSA-N

> <SMILES>
CC(C)NCC(O)COC1=C(C)C(C)=C(OC(C)=O)C(C)=C1

> <JCHEM_ACCEPTOR_COUNT>
4

> <JCHEM_DONOR_COUNT>
2

> <JCHEM_ACIDIC_PKA>
14.09

> <JCHEM_BASIC_PKA>
9.67

> <JCHEM_PHYSIOLOGICAL_CHARGE>
1

> <ALOGPS_LOGP>
2.13

> <JCHEM_LOGP>
2.74

> <ALOGPS_LOGS>
-3.2

> <JCHEM_POLARIZABILITY>
35.85

> <JCHEM_POLAR_SURFACE_AREA>
67.79

> <JCHEM_REFRACTIVITY>
86.63

> <JCHEM_ROTATABLE_BOND_COUNT>
8

> <ALOGPS_SOLUBILITY>
1.73e-01 g/l __ 

$$$$
