
  Mrv0541 02231215512D          

 10  9  0  0  1  0            999 V2000
   -0.1914   -0.7145    0.0000 C   0  0  0  0  0  0  0  0  0  0  0  0
    0.5230   -1.1270    0.0000 N   0  0  0  0  0  0  0  0  0  0  0  0
    1.2375   -0.7145    0.0000 C   0  0  0  0  0  0  0  0  0  0  0  0
    1.2375    0.1105    0.0000 O   0  0  0  0  0  0  0  0  0  0  0  0
    1.9520   -1.1270    0.0000 C   0  0  1  0  0  0  0  0  0  0  0  0
    1.9520   -1.9520    0.0000 N   0  0  0  0  0  0  0  0  0  0  0  0
    2.6664   -0.7145    0.0000 C   0  0  0  0  0  0  0  0  0  0  0  0
    3.3809   -0.3020    0.0000 C   0  0  0  0  0  0  0  0  0  0  0  0
    3.0789   -1.4289    0.0000 C   0  0  0  0  0  0  0  0  0  0  0  0
    2.2539    0.0000    0.0000 C   0  0  0  0  0  0  0  0  0  0  0  0
  1  2  1  0  0  0  0
  2  3  1  0  0  0  0
  3  4  2  0  0  0  0
  3  5  1  0  0  0  0
  5  6  1  6  0  0  0
  5  7  1  0  0  0  0
  7  8  1  0  0  0  0
  7  9  1  0  0  0  0
  7 10  1  0  0  0  0
M  END
> <DRUGBANK_ID>
DB01949

> <DRUG_GROUPS>
experimental

> <GENERIC_NAME>
2-Amino-N,3,3-Trimethylbutanamide

> <CHEMICAL_FORMULA>
C7H16N2O

> <MOLECULAR_WEIGHT>
144.2147

> <EXACT_MASS>
144.126263144

> <IUPAC_NAME>
(2S)-2-amino-N,3,3-trimethylbutanamide

> <IUPAC_TRADITIONAL_NAME>
(2S)-2-amino-N,3,3-trimethylbutanamide

> <INCHI_IDENTIFIER>
InChI=1S/C7H16N2O/c1-7(2,3)5(8)6(10)9-4/h5H,8H2,1-4H3,(H,9,10)/t5-/m1/s1

> <INCHI_KEY>
InChIKey=BPKJNEIOHOEWLO-RXMQYKEDSA-N

> <SMILES>
CNC(=O)[C@@H](N)C(C)(C)C

> <JCHEM_ACCEPTOR_COUNT>
2

> <JCHEM_DONOR_COUNT>
2

> <JCHEM_ACIDIC_PKA>
16.28

> <JCHEM_BASIC_PKA>
8.24

> <JCHEM_PHYSIOLOGICAL_CHARGE>
1

> <ALOGPS_LOGP>
0.04

> <JCHEM_LOGP>
0.1

> <ALOGPS_LOGS>
-0.29

> <JCHEM_POLARIZABILITY>
16.49

> <JCHEM_POLAR_SURFACE_AREA>
55.12

> <JCHEM_REFRACTIVITY>
40.61

> <JCHEM_ROTATABLE_BOND_COUNT>
2

> <ALOGPS_SOLUBILITY>
7.33e+01 g/l __ 

$$$$
