
  Mrv0541 01241411192D          

 34 37  0  0  0  0            999 V2000
    8.3346   -4.3826    0.0000 C    0  0  1  0  0  0  0  0  0  0  0  0
    8.3346   -5.2076    0.0000 C    0  0  2  0  0  0  0  0  0  0  0  0
    7.6399   -3.9484    0.0000 C    0  0  0  0  0  0  0  0  0  0  0  0
    8.3346   -3.5575    0.0000 C    0  0  0  0  0  0  0  0  0  0  0  0
    7.6399   -5.6418    0.0000 C    0  0  1  0  0  0  0  0  0  0  0  0
    6.9017   -4.3826    0.0000 C    0  0  1  0  0  0  0  0  0  0  0  0
    6.9017   -5.2076    0.0000 C    0  0  2  0  0  0  0  0  0  0  0  0
    7.6399   -6.4668    0.0000 C    0  0  0  0  0  0  0  0  0  0  0  0
    6.1636   -3.9484    0.0000 O    0  0  0  0  0  0  0  0  0  0  0  0
    6.1636   -5.6418    0.0000 C    0  0  2  0  0  0  0  0  0  0  0  0
    6.9017   -6.0760    0.0000 F    0  0  0  0  0  0  0  0  0  0  0  0
    6.9017   -6.9010    0.0000 C    0  0  0  0  0  0  0  0  0  0  0  0
    6.1636   -6.4668    0.0000 C    0  0  0  0  0  0  0  0  0  0  0  0
    5.4254   -5.2076    0.0000 C    0  0  0  0  0  0  0  0  0  0  0  0
    6.1636   -4.8168    0.0000 C    0  0  0  0  0  0  0  0  0  0  0  0
    5.4254   -6.9010    0.0000 C    0  0  0  0  0  0  0  0  0  0  0  0
    4.7307   -5.6418    0.0000 C    0  0  0  0  0  0  0  0  0  0  0  0
    4.7307   -6.4668    0.0000 C    0  0  0  0  0  0  0  0  0  0  0  0
    3.9925   -6.9010    0.0000 O    0  0  0  0  0  0  0  0  0  0  0  0
    8.3346   -6.0760    0.0000 H    0  0  0  0  0  0  0  0  0  0  0  0
    7.5965   -4.7734    0.0000 H    0  0  0  0  0  0  0  0  0  0  0  0
    9.1192   -5.4626    0.0000 C    0  0  0  0  0  0  0  0  0  0  0  0
    9.6041   -4.7951    0.0000 C    0  0  1  0  0  0  0  0  0  0  0  0
    9.1193   -4.1277    0.0000 C    0  0  2  0  0  0  0  0  0  0  0  0
    9.1148   -3.3000    0.0000 C    0  0  0  0  0  0  0  0  0  0  0  0
    9.8269   -2.8836    0.0000 C    0  0  0  0  0  0  0  0  0  0  0  0
    8.3980   -2.8914    0.0000 O    0  0  0  0  0  0  0  0  0  0  0  0
   10.4291   -4.7952    0.0000 C    0  0  0  0  0  0  0  0  0  0  0  0
    9.8224   -2.0586    0.0000 Cl   0  0  0  0  0  0  0  0  0  0  0  0
    9.9099   -4.3337    0.0000 O    0  0  0  0  0  0  0  0  0  0  0  0
   10.6256   -3.9262    0.0000 C    0  0  0  0  0  0  0  0  0  0  0  0
   11.3376   -4.3430    0.0000 C    0  0  0  0  0  0  0  0  0  0  0  0
   12.0545   -3.9347    0.0000 C    0  0  0  0  0  0  0  0  0  0  0  0
   10.6305   -3.1012    0.0000 O    0  0  0  0  0  0  0  0  0  0  0  0
  1  3  1  0  0  0  0
  1  4  1  1  0  0  0
  2  5  1  0  0  0  0
  3  6  1  0  0  0  0
  5  7  1  0  0  0  0
  5  8  1  0  0  0  0
  6  9  1  1  0  0  0
  7 10  1  0  0  0  0
  7 11  1  6  0  0  0
  8 12  1  0  0  0  0
 10 13  1  0  0  0  0
 10 14  1  0  0  0  0
 10 15  1  1  0  0  0
 13 16  2  0  0  0  0
 14 17  2  0  0  0  0
 16 18  1  0  0  0  0
 18 19  2  0  0  0  0
  6  7  1  0  0  0  0
 12 13  1  0  0  0  0
 17 18  1  0  0  0  0
  2 20  1  6  0  0  0
  5 21  1  1  0  0  0
 22  2  1  0  0  0  0
  1  2  1  0  0  0  0
 23 22  1  0  0  0  0
 24  1  1  0  0  0  0
 24 23  1  0  0  0  0
 24 25  1  0  0  0  0
 25 26  1  0  0  0  0
 25 27  2  0  0  0  0
 23 28  1  1  0  0  0
 26 29  1  0  0  0  0
 24 30  1  6  0  0  0
 30 31  1  0  0  0  0
 31 32  1  0  0  0  0
 32 33  1  0  0  0  0
 31 34  2  0  0  0  0
M  END
> <DRUGBANK_ID>
DB01013

> <DRUG_GROUPS>
approved

> <GENERIC_NAME>
Clobetasol propionate

> <SYNONYMS>
21-chloro-9-fluoro-11β,17-dihydroxy-16β-methylpregna-1,4-diene-3,20-dione 17-propionate; clobetasol 17-propanoate; clobetasol 17-propionate

> <BRANDS>
Clobesol; Clobex; Cormax; Dermovate; Embeline; Embeline E; Olux; Temovate; Temovate E

> <CHEMICAL_FORMULA>
C25H32ClFO5

> <MOLECULAR_WEIGHT>
466.97

> <EXACT_MASS>
466.192230046

> <IUPAC_NAME>
(1R,2S,10S,11S,13S,14R,15S,17S)-14-(2-chloroacetyl)-1-fluoro-17-hydroxy-2,13,15-trimethyl-5-oxotetracyclo[8.7.0.0²,⁷.0¹¹,¹⁵]heptadeca-3,6-dien-14-yl propanoate

> <IUPAC_TRADITIONAL_NAME>
temovate

> <INCHI_IDENTIFIER>
InChI=1/C25H32ClFO5/c1-5-21(31)32-25(20(30)13-26)14(2)10-18-17-7-6-15-11-16(28)8-9-22(15,3)24(17,27)19(29)12-23(18,25)4/h8-9,11,14,17-19,29H,5-7,10,12-13H2,1-4H3/t14-,17-,18-,19-,22-,23-,24-,25-/s2

> <INCHI_KEY>
InChIKey=CBGUOGMQLZIXBE-KBUOYLHWNA-N

> <SMILES>
[H][C@@]12C[C@H](C)[C@](OC(=O)CC)(C(=O)CCl)[C@@]1(C)C[C@H](O)[C@@]1(F)[C@@]2([H])CCC2=CC(=O)C=C[C@]12C

> <JCHEM_ACCEPTOR_COUNT>
4

> <JCHEM_DONOR_COUNT>
1

> <JCHEM_ACIDIC_PKA>
13.63

> <JCHEM_BASIC_PKA>
-3.4

> <JCHEM_PHYSIOLOGICAL_CHARGE>
0

> <ALOGPS_LOGP>
3.49

> <JCHEM_LOGP>
4.18

> <ALOGPS_LOGS>
-5

> <JCHEM_POLARIZABILITY>
48.28

> <JCHEM_POLAR_SURFACE_AREA>
80.67

> <JCHEM_REFRACTIVITY>
119.32

> <JCHEM_ROTATABLE_BOND_COUNT>
5

> <ALOGPS_SOLUBILITY>
4.13e-03 g/l __ 

$$$$
