TNL
  Mrv0541 02231215382D          

 16 16  0  0  0  0            999 V2000
    0.4705    0.2768    0.0000 C   0  0  0  0  0  0  0  0  0  0  0  0
    1.1850    0.6893    0.0000 C   0  0  0  0  0  0  0  0  0  0  0  0
    0.4705   -0.5482    0.0000 C   0  0  0  0  0  0  0  0  0  0  0  0
    1.1850   -0.9607    0.0000 N   0  3  0  0  0  0  0  0  0  0  0  0
    1.1850   -1.7857    0.0000 O   0  0  0  0  0  0  0  0  0  0  0  0
    1.8994   -0.5482    0.0000 O   0  5  0  0  0  0  0  0  0  0  0  0
   -0.2440   -0.9607    0.0000 C   0  0  0  0  0  0  0  0  0  0  0  0
   -0.9584   -0.5482    0.0000 C   0  0  0  0  0  0  0  0  0  0  0  0
   -1.6729   -0.9607    0.0000 N   0  3  0  0  0  0  0  0  0  0  0  0
   -1.6729   -1.7857    0.0000 O   0  0  0  0  0  0  0  0  0  0  0  0
   -2.3874   -0.5482    0.0000 O   0  5  0  0  0  0  0  0  0  0  0  0
   -0.9584    0.2768    0.0000 C   0  0  0  0  0  0  0  0  0  0  0  0
   -0.2440    0.6893    0.0000 C   0  0  0  0  0  0  0  0  0  0  0  0
   -0.2440    1.5143    0.0000 N   0  3  0  0  0  0  0  0  0  0  0  0
   -0.9584    1.9268    0.0000 O   0  0  0  0  0  0  0  0  0  0  0  0
    0.4705    1.9268    0.0000 O   0  5  0  0  0  0  0  0  0  0  0  0
  1  2  1  0  0  0  0
  1  3  2  0  0  0  0
  1 13  1  0  0  0  0
  3  4  1  0  0  0  0
  3  7  1  0  0  0  0
  4  5  2  0  0  0  0
  4  6  1  0  0  0  0
  7  8  2  0  0  0  0
  8  9  1  0  0  0  0
  8 12  1  0  0  0  0
  9 10  2  0  0  0  0
  9 11  1  0  0  0  0
 12 13  2  0  0  0  0
 13 14  1  0  0  0  0
 14 15  2  0  0  0  0
 14 16  1  0  0  0  0
M  END
> <DRUGBANK_ID>
DB01676

> <DRUG_GROUPS>
experimental

> <GENERIC_NAME>
Trinitrotoluene

> <SYNONYMS>


> <CHEMICAL_FORMULA>
C7H5N3O6

> <MOLECULAR_WEIGHT>
227.1311

> <EXACT_MASS>
227.017834907

> <IUPAC_NAME>
2-methyl-1,3,5-trinitrobenzene

> <IUPAC_TRADITIONAL_NAME>
trinitrotoluene

> <INCHI_IDENTIFIER>
InChI=1S/C7H5N3O6/c1-4-6(9(13)14)2-5(8(11)12)3-7(4)10(15)16/h2-3H,1H3

> <INCHI_KEY>
InChIKey=SPSSULHKWOKEEL-UHFFFAOYSA-N

> <SMILES>
CC1=C(C=C(C=C1[N+]([O-])=O)[N+]([O-])=O)[N+]([O-])=O

> <JCHEM_ACCEPTOR_COUNT>
6

> <JCHEM_DONOR_COUNT>
0

> <JCHEM_ACIDIC_PKA>
16.99

> <JCHEM_PHYSIOLOGICAL_CHARGE>
0

> <ALOGPS_LOGP>
1.5

> <JCHEM_LOGP>
2.31

> <ALOGPS_LOGS>
-3.5

> <JCHEM_POLARIZABILITY>
17.9

> <JCHEM_POLAR_SURFACE_AREA>
137.46

> <JCHEM_REFRACTIVITY>
53.07

> <JCHEM_ROTATABLE_BOND_COUNT>
3

> <ALOGPS_SOLUBILITY>
7.78e-02 g/l __ 

$$$$
