1484
  Mrv0541 02231215312D          

 15 15  0  0  1  0            999 V2000
    3.7935   -2.3967    0.0000 Br   0  0  0  0  0  0  0  0  0  0  0  0
    2.3645    0.0784    0.0000 O    0  0  0  0  0  0  0  0  0  0  0  0
    5.2224   -1.5717    0.0000 O    0  0  0  0  0  0  0  0  0  0  0  0
    4.5080    2.1409    0.0000 N    0  0  0  0  0  0  0  0  0  0  0  0
    3.7935    0.9034    0.0000 C    0  0  0  0  0  0  0  0  0  0  0  0
    4.5080    1.3159    0.0000 C    0  0  0  0  0  0  0  0  0  0  0  0
    3.7935    0.0784    0.0000 C    0  0  0  0  0  0  0  0  0  0  0  0
    3.0791   -0.3341    0.0000 C    0  0  0  0  0  0  0  0  0  0  0  0
    5.2224    0.9034    0.0000 C    0  0  0  0  0  0  0  0  0  0  0  0
    4.5080   -0.3341    0.0000 C    0  0  0  0  0  0  0  0  0  0  0  0
    4.5080   -1.1592    0.0000 C    0  0  0  0  0  0  0  0  0  0  0  0
    3.0791   -1.1592    0.0000 C    0  0  0  0  0  0  0  0  0  0  0  0
    3.7935   -1.5717    0.0000 C    0  0  0  0  0  0  0  0  0  0  0  0
    1.6500   -0.3341    0.0000 C    0  0  0  0  0  0  0  0  0  0  0  0
    5.9370   -1.1592    0.0000 C    0  0  0  0  0  0  0  0  0  0  0  0
  1 13  1  0  0  0  0
  2  8  1  0  0  0  0
  2 14  1  0  0  0  0
  3 11  1  0  0  0  0
  3 15  1  0  0  0  0
  4  6  1  0  0  0  0
  5  6  1  0  0  0  0
  5  7  1  0  0  0  0
  6  9  1  0  0  0  0
  7  8  1  0  0  0  0
  7 10  2  0  0  0  0
  8 12  2  0  0  0  0
 10 11  1  0  0  0  0
 11 13  2  0  0  0  0
 12 13  1  0  0  0  0
M  END
> <DRUGBANK_ID>
DB01484

> <DRUG_GROUPS>
experimental; illicit

> <GENERIC_NAME>
4-Bromo-2,5-dimethoxyamphetamine

> <CHEMICAL_FORMULA>
C11H16BrNO2

> <MOLECULAR_WEIGHT>
274.154

> <EXACT_MASS>
273.036441408

> <IUPAC_NAME>
1-(4-bromo-2,5-dimethoxyphenyl)propan-2-amine

> <IUPAC_TRADITIONAL_NAME>
1-(4-bromo-2,5-dimethoxyphenyl)propan-2-amine

> <INCHI_IDENTIFIER>
InChI=1S/C11H16BrNO2/c1-7(13)4-8-5-11(15-3)9(12)6-10(8)14-2/h5-7H,4,13H2,1-3H3

> <INCHI_KEY>
InChIKey=FXMWUTGUCAKGQL-UHFFFAOYSA-N

> <SMILES>
COC1=CC(Br)=C(OC)C=C1CC(C)N

> <JCHEM_ACCEPTOR_COUNT>
3

> <JCHEM_DONOR_COUNT>
1

> <JCHEM_BASIC_PKA>
9.9

> <JCHEM_PHYSIOLOGICAL_CHARGE>
1

> <ALOGPS_LOGP>
2.53

> <JCHEM_LOGP>
2.26

> <ALOGPS_LOGS>
-3.5

> <JCHEM_POLARIZABILITY>
25.28

> <JCHEM_POLAR_SURFACE_AREA>
44.48

> <JCHEM_REFRACTIVITY>
64.25

> <JCHEM_ROTATABLE_BOND_COUNT>
4

> <ALOGPS_SOLUBILITY>
9.48e-02 g/l __ 

$$$$
