675
  Mrv0541 02231215522D          

 22 24  0  0  0  0            999 V2000
   -3.0662   -2.3980    0.0000 N   0  0  0  0  0  0  0  0  0  0  0  0
   -3.0662   -1.5730    0.0000 C   0  0  0  0  0  0  0  0  0  0  0  0
   -3.7807   -1.1605    0.0000 N   0  0  0  0  0  0  0  0  0  0  0  0
   -2.3518   -1.1605    0.0000 C   0  0  0  0  0  0  0  0  0  0  0  0
   -2.3518   -0.3355    0.0000 C   0  0  0  0  0  0  0  0  0  0  0  0
   -1.6373    0.0770    0.0000 C   0  0  0  0  0  0  0  0  0  0  0  0
   -0.9228   -0.3355    0.0000 C   0  0  0  0  0  0  0  0  0  0  0  0
   -0.2083    0.0770    0.0000 C   0  0  0  0  0  0  0  0  0  0  0  0
    0.5061   -0.3355    0.0000 C   0  0  0  0  0  0  0  0  0  0  0  0
    0.5061   -1.1605    0.0000 C   0  0  0  0  0  0  0  0  0  0  0  0
   -0.2083   -1.5730    0.0000 C   0  0  0  0  0  0  0  0  0  0  0  0
   -0.9228   -1.1605    0.0000 C   0  0  0  0  0  0  0  0  0  0  0  0
   -1.6373   -1.5730    0.0000 C   0  0  0  0  0  0  0  0  0  0  0  0
    1.2206    0.0770    0.0000 C   0  0  0  0  0  0  0  0  0  0  0  0
    1.9351   -0.3355    0.0000 O   0  0  0  0  0  0  0  0  0  0  0  0
    1.2206    0.9020    0.0000 N   0  0  0  0  0  0  0  0  0  0  0  0
    1.9351    1.3145    0.0000 C   0  0  0  0  0  0  0  0  0  0  0  0
    1.9351    2.1395    0.0000 C   0  0  0  0  0  0  0  0  0  0  0  0
    2.6495    2.5520    0.0000 C   0  0  0  0  0  0  0  0  0  0  0  0
    3.3640    2.1395    0.0000 C   0  0  0  0  0  0  0  0  0  0  0  0
    3.3640    1.3145    0.0000 C   0  0  0  0  0  0  0  0  0  0  0  0
    2.6495    0.9020    0.0000 C   0  0  0  0  0  0  0  0  0  0  0  0
  1  2  2  0  0  0  0
  2  3  1  0  0  0  0
  2  4  1  0  0  0  0
  4  5  2  0  0  0  0
  4 13  1  0  0  0  0
  5  6  1  0  0  0  0
  6  7  2  0  0  0  0
  7  8  1  0  0  0  0
  7 12  1  0  0  0  0
  8  9  2  0  0  0  0
  9 10  1  0  0  0  0
  9 14  1  0  0  0  0
 10 11  2  0  0  0  0
 11 12  1  0  0  0  0
 12 13  2  0  0  0  0
 14 15  2  0  0  0  0
 14 16  1  0  0  0  0
 16 17  1  0  0  0  0
 17 18  2  0  0  0  0
 17 22  1  0  0  0  0
 18 19  1  0  0  0  0
 19 20  2  0  0  0  0
 20 21  1  0  0  0  0
 21 22  2  0  0  0  0
M  END
> <DRUGBANK_ID>
DB01977

> <DRUG_GROUPS>
experimental

> <GENERIC_NAME>
6-(N-Phenylcarbamyl)-2-Naphthalenecarboxamidine

> <CHEMICAL_FORMULA>
C18H15N3O

> <MOLECULAR_WEIGHT>
289.3312

> <EXACT_MASS>
289.121512117

> <IUPAC_NAME>
6-carbamimidoyl-N-phenylnaphthalene-2-carboxamide

> <IUPAC_TRADITIONAL_NAME>
6-carbamimidoyl-N-phenylnaphthalene-2-carboxamide

> <INCHI_IDENTIFIER>
InChI=1S/C18H15N3O/c19-17(20)14-8-6-13-11-15(9-7-12(13)10-14)18(22)21-16-4-2-1-3-5-16/h1-11H,(H3,19,20)(H,21,22)

> <INCHI_KEY>
InChIKey=AECPTICWHONWNW-UHFFFAOYSA-N

> <SMILES>
NC(=N)C1=CC=C2C=C(C=CC2=C1)C(=O)NC1=CC=CC=C1

> <JCHEM_ACCEPTOR_COUNT>
3

> <JCHEM_DONOR_COUNT>
3

> <JCHEM_ACIDIC_PKA>
12.14

> <JCHEM_BASIC_PKA>
11.22

> <JCHEM_PHYSIOLOGICAL_CHARGE>
1

> <ALOGPS_LOGP>
2.46

> <JCHEM_LOGP>
2.67

> <ALOGPS_LOGS>
-4.3

> <JCHEM_POLARIZABILITY>
32.28

> <JCHEM_POLAR_SURFACE_AREA>
78.97

> <JCHEM_REFRACTIVITY>
99.71

> <JCHEM_ROTATABLE_BOND_COUNT>
3

> <ALOGPS_SOLUBILITY>
1.29e-02 g/l __ 

$$$$
