1174
  Mrv0541 02231215182D          

 17 18  0  0  0  0            999 V2000
    1.6500    0.1658    0.0000 O   0  0  0  0  0  0  0  0  0  0  0  0
    4.5080    0.1658    0.0000 O   0  0  0  0  0  0  0  0  0  0  0  0
    3.0791   -2.3092    0.0000 O   0  0  0  0  0  0  0  0  0  0  0  0
    2.3645   -1.0717    0.0000 N   0  0  0  0  0  0  0  0  0  0  0  0
    3.7935   -1.0717    0.0000 N   0  0  0  0  0  0  0  0  0  0  0  0
    3.0791    0.1658    0.0000 C   0  0  0  0  0  0  0  0  0  0  0  0
    2.6665    0.8803    0.0000 C   0  0  0  0  0  0  0  0  0  0  0  0
    3.4916    0.8803    0.0000 C   0  0  0  0  0  0  0  0  0  0  0  0
    2.3645   -0.2467    0.0000 C   0  0  0  0  0  0  0  0  0  0  0  0
    3.7935   -0.2467    0.0000 C   0  0  0  0  0  0  0  0  0  0  0  0
    1.8415    0.8803    0.0000 C   0  0  0  0  0  0  0  0  0  0  0  0
    3.0791    1.5948    0.0000 C   0  0  0  0  0  0  0  0  0  0  0  0
    4.3166    0.8803    0.0000 C   0  0  0  0  0  0  0  0  0  0  0  0
    3.0791   -1.4842    0.0000 C   0  0  0  0  0  0  0  0  0  0  0  0
    3.4916    2.3092    0.0000 C   0  0  0  0  0  0  0  0  0  0  0  0
    4.7291    1.5948    0.0000 C   0  0  0  0  0  0  0  0  0  0  0  0
    4.3166    2.3092    0.0000 C   0  0  0  0  0  0  0  0  0  0  0  0
  1  9  2  0  0  0  0
  2 10  2  0  0  0  0
  3 14  2  0  0  0  0
  4  9  1  0  0  0  0
  4 14  1  0  0  0  0
  5 10  1  0  0  0  0
  5 14  1  0  0  0  0
  6  7  1  0  0  0  0
  6  8  1  0  0  0  0
  6  9  1  0  0  0  0
  6 10  1  0  0  0  0
  7 11  1  0  0  0  0
  8 12  2  0  0  0  0
  8 13  1  0  0  0  0
 12 15  1  0  0  0  0
 13 16  2  0  0  0  0
 15 17  2  0  0  0  0
 16 17  1  0  0  0  0
M  END
> <DRUGBANK_ID>
DB01174

> <DRUG_GROUPS>
approved

> <GENERIC_NAME>
Phenobarbital

> <SYNONYMS>
5-ethyl-5-phenyl-2,4,6(1H,3H,5H)-pyrimidinetrione; 5-Ethyl-5-phenyl-pyrimidine-2,4,6-trione; 5-Ethyl-5-phenylbarbituric acid; 5-ethyl-5-phenylpyrimidine-2,4,6(1H,3H,5H)-trione; 5-Phenyl-5-ethylbarbituric acid; Phenobarbitol; Phenobarbitone; Phenobarbituric Acid; Phenylethylbarbiturate; Phenylethylbarbituric Acid

> <BRANDS>
Luminal

> <CHEMICAL_FORMULA>
C12H12N2O3

> <MOLECULAR_WEIGHT>
232.2353

> <EXACT_MASS>
232.08479226

> <IUPAC_NAME>
5-ethyl-5-phenyl-1,3-diazinane-2,4,6-trione

> <IUPAC_TRADITIONAL_NAME>
phenobarbital

> <INCHI_IDENTIFIER>
InChI=1S/C12H12N2O3/c1-2-12(8-6-4-3-5-7-8)9(15)13-11(17)14-10(12)16/h3-7H,2H2,1H3,(H2,13,14,15,16,17)

> <INCHI_KEY>
InChIKey=DDBREPKUVSBGFI-UHFFFAOYSA-N

> <SMILES>
CCC1(C(=O)NC(=O)NC1=O)C1=CC=CC=C1

> <JCHEM_ACCEPTOR_COUNT>
3

> <JCHEM_DONOR_COUNT>
2

> <JCHEM_ACIDIC_PKA>
8.14

> <JCHEM_PHYSIOLOGICAL_CHARGE>
0

> <ALOGPS_LOGP>
1.4

> <JCHEM_LOGP>
1.41

> <ALOGPS_LOGS>
-2.9

> <JCHEM_POLARIZABILITY>
22.61

> <JCHEM_POLAR_SURFACE_AREA>
75.27

> <JCHEM_REFRACTIVITY>
59.75

> <JCHEM_ROTATABLE_BOND_COUNT>
2

> <ALOGPS_SOLUBILITY>
2.76e-01 g/l __ 

$$$$
