1156
  Mrv0541 02231215172D          

 16 16  0  0  1  0            999 V2000
    1.6500   -2.4198    0.0000 Cl   0  0  0  0  0  0  0  0  0  0  0  0
    2.3645    0.4678    0.0000 O    0  0  0  0  0  0  0  0  0  0  0  0
    3.7935    1.2928    0.0000 N    0  0  0  0  0  0  0  0  0  0  0  0
    4.5080    1.7053    0.0000 C    0  0  0  0  0  0  0  0  0  0  0  0
    3.7935    0.4678    0.0000 C    0  0  0  0  0  0  0  0  0  0  0  0
    5.2224    2.1178    0.0000 C    0  0  0  0  0  0  0  0  0  0  0  0
    4.0955    2.4198    0.0000 C    0  0  0  0  0  0  0  0  0  0  0  0
    4.9205    0.9908    0.0000 C    0  0  0  0  0  0  0  0  0  0  0  0
    4.5080    0.0553    0.0000 C    0  0  0  0  0  0  0  0  0  0  0  0
    3.0791    0.0553    0.0000 C    0  0  0  0  0  0  0  0  0  0  0  0
    3.0791   -0.7697    0.0000 C    0  0  0  0  0  0  0  0  0  0  0  0
    2.3645   -1.1823    0.0000 C    0  0  0  0  0  0  0  0  0  0  0  0
    3.7935   -1.1823    0.0000 C    0  0  0  0  0  0  0  0  0  0  0  0
    2.3645   -2.0073    0.0000 C    0  0  0  0  0  0  0  0  0  0  0  0
    3.7935   -2.0073    0.0000 C    0  0  0  0  0  0  0  0  0  0  0  0
    3.0791   -2.4198    0.0000 C    0  0  0  0  0  0  0  0  0  0  0  0
  1 14  1  0  0  0  0
  2 10  2  0  0  0  0
  3  4  1  0  0  0  0
  3  5  1  0  0  0  0
  4  6  1  0  0  0  0
  4  7  1  0  0  0  0
  4  8  1  0  0  0  0
  5  9  1  0  0  0  0
  5 10  1  0  0  0  0
 10 11  1  0  0  0  0
 11 12  2  0  0  0  0
 11 13  1  0  0  0  0
 12 14  1  0  0  0  0
 13 15  2  0  0  0  0
 14 16  2  0  0  0  0
 15 16  1  0  0  0  0
M  END
> <DRUGBANK_ID>
DB01156

> <DRUG_GROUPS>
approved

> <GENERIC_NAME>
Bupropion

> <SYNONYMS>


> <SALTS>
Bupropion Hydrochloride

> <BRANDS>


> <CHEMICAL_FORMULA>
C13H18ClNO

> <MOLECULAR_WEIGHT>
239.741

> <EXACT_MASS>
239.10769191

> <IUPAC_NAME>
2-(tert-butylamino)-1-(3-chlorophenyl)propan-1-one

> <IUPAC_TRADITIONAL_NAME>
bupropion

> <INCHI_IDENTIFIER>
InChI=1S/C13H18ClNO/c1-9(15-13(2,3)4)12(16)10-6-5-7-11(14)8-10/h5-9,15H,1-4H3

> <INCHI_KEY>
InChIKey=SNPPWIUOZRMYNY-UHFFFAOYSA-N

> <SMILES>
CC(NC(C)(C)C)C(=O)C1=CC(Cl)=CC=C1

> <JCHEM_ACCEPTOR_COUNT>
2

> <JCHEM_DONOR_COUNT>
1

> <JCHEM_ACIDIC_PKA>
18.29

> <JCHEM_BASIC_PKA>
8.22

> <JCHEM_PHYSIOLOGICAL_CHARGE>
1

> <ALOGPS_LOGP>
3.28

> <JCHEM_LOGP>
3.27

> <ALOGPS_LOGS>
-3.5

> <JCHEM_POLARIZABILITY>
25.93

> <JCHEM_POLAR_SURFACE_AREA>
29.1

> <JCHEM_REFRACTIVITY>
67.7

> <JCHEM_ROTATABLE_BOND_COUNT>
4

> <ALOGPS_SOLUBILITY>
6.93e-02 g/l __ 

$$$$
