
  Mrv0541 02231215392D          

 10  9  0  0  1  0            999 V2000
    1.9520    1.9520    0.0000 O   0  0  0  0  0  0  0  0  0  0  0  0
    1.9520    1.1270    0.0000 C   0  0  1  0  0  0  0  0  0  0  0  0
    1.2375    0.7145    0.0000 C   0  0  1  0  0  0  0  0  0  0  0  0
    1.2375   -0.1105    0.0000 O   0  0  0  0  0  0  0  0  0  0  0  0
    0.5230    1.1270    0.0000 C   0  0  0  0  0  0  0  0  0  0  0  0
   -0.1914    0.7145    0.0000 O   0  0  0  0  0  0  0  0  0  0  0  0
    0.5230    1.9520    0.0000 O   0  0  0  0  0  0  0  0  0  0  0  0
    2.6664    0.7145    0.0000 C   0  0  0  0  0  0  0  0  0  0  0  0
    3.3809    1.1270    0.0000 O   0  0  0  0  0  0  0  0  0  0  0  0
    2.6664   -0.1105    0.0000 O   0  0  0  0  0  0  0  0  0  0  0  0
  2  1  1  6  0  0  0
  2  3  1  0  0  0  0
  3  4  1  1  0  0  0
  3  5  1  0  0  0  0
  5  6  1  0  0  0  0
  5  7  2  0  0  0  0
  2  8  1  0  0  0  0
  8  9  1  0  0  0  0
  8 10  2  0  0  0  0
M  END
> <DRUGBANK_ID>
DB01694

> <DRUG_GROUPS>
experimental

> <GENERIC_NAME>
D-tartaric acid

> <SYNONYMS>
(2S,3S)-Tartaric acid; D-threaric acid

> <CHEMICAL_FORMULA>
C4H6O6

> <MOLECULAR_WEIGHT>
150.0868

> <EXACT_MASS>
150.016437924

> <IUPAC_NAME>
(2R,3S)-2,3-dihydroxybutanedioic acid

> <IUPAC_TRADITIONAL_NAME>
D-tartaric acid

> <INCHI_IDENTIFIER>
InChI=1S/C4H6O6/c5-1(3(7)8)2(6)4(9)10/h1-2,5-6H,(H,7,8)(H,9,10)/t1-,2+

> <INCHI_KEY>
InChIKey=FEWJPZIEWOKRBE-XIXRPRMCSA-N

> <SMILES>
O[C@@H]([C@@H](O)C(O)=O)C(O)=O

> <JCHEM_ACCEPTOR_COUNT>
6

> <JCHEM_DONOR_COUNT>
4

> <JCHEM_ACIDIC_PKA>
2.72

> <JCHEM_BASIC_PKA>
-4.3

> <JCHEM_PHYSIOLOGICAL_CHARGE>
-2

> <ALOGPS_LOGP>
-1.3

> <JCHEM_LOGP>
-1.8

> <ALOGPS_LOGS>
0.03

> <JCHEM_POLARIZABILITY>
11.69

> <JCHEM_POLAR_SURFACE_AREA>
115.06

> <JCHEM_REFRACTIVITY>
26.21

> <JCHEM_ROTATABLE_BOND_COUNT>
3

> <ALOGPS_SOLUBILITY>
1.61e+02 g/l __ 

$$$$
