
  Mrv0541 02231215472D          

 46 50  0  0  1  0            999 V2000
   -1.4289   -1.6500    0.0000 C   0  0  0  0  0  0  0  0  0  0  0  0
   -2.1434   -2.0625    0.0000 N   0  0  0  0  0  0  0  0  0  0  0  0
   -2.8579   -1.6500    0.0000 C   0  0  2  0  0  0  0  0  0  0  0  0
   -2.8579   -0.8250    0.0000 C   0  0  0  0  0  0  0  0  0  0  0  0
   -3.5724   -0.4125    0.0000 C   0  0  0  0  0  0  0  0  0  0  0  0
   -3.5724    0.4125    0.0000 O   0  0  0  0  0  0  0  0  0  0  0  0
   -4.2868   -0.8250    0.0000 O   0  0  0  0  0  0  0  0  0  0  0  0
   -3.5724   -2.0625    0.0000 C   0  0  0  0  0  0  0  0  0  0  0  0
   -4.2868   -1.6500    0.0000 O   0  0  0  0  0  0  0  0  0  0  0  0
   -3.5724   -2.8875    0.0000 O   0  0  0  0  0  0  0  0  0  0  0  0
   -2.1434   -2.8875    0.0000 C   0  0  0  0  0  0  0  0  0  0  0  0
   -2.8579   -3.3000    0.0000 O   0  0  0  0  0  0  0  0  0  0  0  0
   -1.4289   -3.3000    0.0000 C   0  0  0  0  0  0  0  0  0  0  0  0
   -1.4289   -4.1250    0.0000 C   0  0  0  0  0  0  0  0  0  0  0  0
   -0.7145   -4.5375    0.0000 C   0  0  0  0  0  0  0  0  0  0  0  0
   -0.7145   -5.3625    0.0000 O   0  0  0  0  0  0  0  0  0  0  0  0
   -1.4289   -5.7750    0.0000 S   0  0  0  0  0  0  0  0  0  0  0  0
   -2.1434   -6.1875    0.0000 O   0  0  0  0  0  0  0  0  0  0  0  0
   -1.8414   -5.0605    0.0000 O   0  0  0  0  0  0  0  0  0  0  0  0
   -1.0164   -6.4895    0.0000 C   0  0  0  0  0  0  0  0  0  0  0  0
   -0.1914   -6.4895    0.0000 C   0  0  0  0  0  0  0  0  0  0  0  0
    0.2211   -7.2039    0.0000 C   0  0  0  0  0  0  0  0  0  0  0  0
   -0.1914   -7.9184    0.0000 C   0  0  0  0  0  0  0  0  0  0  0  0
    0.2211   -8.6329    0.0000 C   0  0  0  0  0  0  0  0  0  0  0  0
   -0.1914   -9.3474    0.0000 C   0  0  0  0  0  0  0  0  0  0  0  0
   -1.0164   -9.3474    0.0000 C   0  0  0  0  0  0  0  0  0  0  0  0
   -1.4289   -8.6329    0.0000 C   0  0  0  0  0  0  0  0  0  0  0  0
   -1.0164   -7.9184    0.0000 C   0  0  0  0  0  0  0  0  0  0  0  0
   -1.4289   -7.2039    0.0000 C   0  0  0  0  0  0  0  0  0  0  0  0
    0.0000   -4.1250    0.0000 C   0  0  0  0  0  0  0  0  0  0  0  0
    0.0000   -3.3000    0.0000 C   0  0  0  0  0  0  0  0  0  0  0  0
   -0.7145   -2.8875    0.0000 C   0  0  0  0  0  0  0  0  0  0  0  0
   -0.7145   -2.0625    0.0000 N   0  0  0  0  0  0  0  0  0  0  0  0
    0.0000   -1.6500    0.0000 S   0  0  0  0  0  0  0  0  0  0  0  0
    0.4125   -2.3645    0.0000 O   0  0  0  0  0  0  0  0  0  0  0  0
   -0.4125   -0.9355    0.0000 O   0  0  0  0  0  0  0  0  0  0  0  0
    0.7145   -1.2375    0.0000 C   0  0  0  0  0  0  0  0  0  0  0  0
    0.7145   -0.4125    0.0000 C   0  0  0  0  0  0  0  0  0  0  0  0
    1.4289    0.0000    0.0000 C   0  0  0  0  0  0  0  0  0  0  0  0
    2.1434   -0.4125    0.0000 C   0  0  0  0  0  0  0  0  0  0  0  0
    2.8579    0.0000    0.0000 C   0  0  0  0  0  0  0  0  0  0  0  0
    3.5724   -0.4125    0.0000 C   0  0  0  0  0  0  0  0  0  0  0  0
    3.5724   -1.2375    0.0000 C   0  0  0  0  0  0  0  0  0  0  0  0
    2.8579   -1.6500    0.0000 C   0  0  0  0  0  0  0  0  0  0  0  0
    2.1434   -1.2375    0.0000 C   0  0  0  0  0  0  0  0  0  0  0  0
    1.4289   -1.6500    0.0000 C   0  0  0  0  0  0  0  0  0  0  0  0
  1  2  1  0  0  0  0
  3  2  1  1  0  0  0
  3  4  1  0  0  0  0
  4  5  1  0  0  0  0
  5  6  1  0  0  0  0
  5  7  2  0  0  0  0
  3  8  1  0  0  0  0
  8  9  1  0  0  0  0
  8 10  2  0  0  0  0
  2 11  1  0  0  0  0
 11 12  2  0  0  0  0
 11 13  1  0  0  0  0
 13 14  2  0  0  0  0
 14 15  1  0  0  0  0
 15 16  1  0  0  0  0
 16 17  1  0  0  0  0
 17 18  2  0  0  0  0
 17 19  2  0  0  0  0
 17 20  1  0  0  0  0
 20 21  2  0  0  0  0
 21 22  1  0  0  0  0
 22 23  2  0  0  0  0
 23 24  1  0  0  0  0
 24 25  2  0  0  0  0
 25 26  1  0  0  0  0
 26 27  2  0  0  0  0
 27 28  1  0  0  0  0
 23 28  1  0  0  0  0
 28 29  2  0  0  0  0
 20 29  1  0  0  0  0
 15 30  2  0  0  0  0
 30 31  1  0  0  0  0
 31 32  2  0  0  0  0
 13 32  1  0  0  0  0
 32 33  1  0  0  0  0
 33 34  1  0  0  0  0
 34 35  2  0  0  0  0
 34 36  2  0  0  0  0
 34 37  1  0  0  0  0
 37 38  2  0  0  0  0
 38 39  1  0  0  0  0
 39 40  2  0  0  0  0
 40 41  1  0  0  0  0
 41 42  2  0  0  0  0
 42 43  1  0  0  0  0
 43 44  2  0  0  0  0
 44 45  1  0  0  0  0
 40 45  1  0  0  0  0
 45 46  2  0  0  0  0
 37 46  1  0  0  0  0
M  END
> <DRUGBANK_ID>
DB01879

> <DRUG_GROUPS>
experimental

> <GENERIC_NAME>
(S)-2-{Methyl-[2-(Naphthalene-2-Sulfonylamino)-5-(Naphthalene-2-Sulfonyloxy)-Benzoyl]-Amino}-Succinicacid

> <CHEMICAL_FORMULA>
C32H26N2O10S2

> <MOLECULAR_WEIGHT>
662.686

> <EXACT_MASS>
662.102886442

> <IUPAC_NAME>
(2R)-2-{N-methyl-1-[2-(naphthalene-2-sulfonamido)-5-[(naphthalene-2-sulfonyl)oxy]phenyl]formamido}butanedioic acid

> <IUPAC_TRADITIONAL_NAME>
(2R)-2-{N-methyl-1-[2-(naphthalene-2-sulfonamido)-5-[(naphthalene-2-sulfonyl)oxy]phenyl]formamido}butanedioic acid

> <INCHI_IDENTIFIER>
InChI=1S/C32H26N2O10S2/c1-34(29(32(38)39)19-30(35)36)31(37)27-18-24(44-46(42,43)26-14-11-21-7-3-5-9-23(21)17-26)12-15-28(27)33-45(40,41)25-13-10-20-6-2-4-8-22(20)16-25/h2-18,29,33H,19H2,1H3,(H,35,36)(H,38,39)/t29-/m1/s1

> <INCHI_KEY>
InChIKey=JOAALZBSMWLOPQ-GDLZYMKVSA-N

> <SMILES>
CN([C@H](CC(O)=O)C(O)=O)C(=O)C1=CC(OS(=O)(=O)C2=CC=C3C=CC=CC3=C2)=CC=C1NS(=O)(=O)C1=CC=C2C=CC=CC2=C1

> <JCHEM_ACCEPTOR_COUNT>
9

> <JCHEM_DONOR_COUNT>
3

> <JCHEM_ACIDIC_PKA>
2.38

> <JCHEM_BASIC_PKA>
-1.5

> <JCHEM_PHYSIOLOGICAL_CHARGE>
-2

> <ALOGPS_LOGP>
3.6

> <JCHEM_LOGP>
4.36

> <ALOGPS_LOGS>
-6.2

> <JCHEM_POLARIZABILITY>
66.65

> <JCHEM_POLAR_SURFACE_AREA>
184.45

> <JCHEM_REFRACTIVITY>
166.16

> <JCHEM_ROTATABLE_BOND_COUNT>
10

> <ALOGPS_SOLUBILITY>
4.44e-04 g/l __ 

$$$$
