
  Mrv0541 02231215232D          

 29 31  0  0  1  0            999 V2000
    5.6654   -0.5339    0.0000 S   0  0  0  0  0  0  0  0  0  0  0  0
    9.3466   -2.3118    0.0000 S   0  0  0  0  0  0  0  0  0  0  0  0
    7.2100   -0.9498    0.0000 O   0  0  0  0  0  0  0  0  0  0  0  0
    7.7938    1.2916    0.0000 O   0  0  0  0  0  0  0  0  0  0  0  0
    3.5219    0.7036    0.0000 O   0  0  0  0  0  0  0  0  0  0  0  0
    4.9508    2.3537    0.0000 O   0  0  0  0  0  0  0  0  0  0  0  0
    8.0337   -1.5555    0.0000 O   0  0  0  0  0  0  0  0  0  0  0  0
    6.3798    2.3537    0.0000 O   0  0  0  0  0  0  0  0  0  0  0  0
    2.8075    1.9412    0.0000 O   0  0  0  0  0  0  0  0  0  0  0  0
    6.3798    0.7036    0.0000 N   0  0  0  0  0  0  0  0  0  0  0  0
    8.0367   -0.1265    0.0000 N   0  0  0  0  0  0  0  0  0  0  0  0
    2.0930    0.7036    0.0000 N   0  0  0  0  0  0  0  0  0  0  0  0
    7.2117   -0.1248    0.0000 C   0  0  2  0  0  0  0  0  0  0  0  0
    6.3798   -0.1214    0.0000 C   0  0  1  0  0  0  0  0  0  0  0  0
    7.2117    0.7070    0.0000 C   0  0  0  0  0  0  0  0  0  0  0  0
    5.6654    1.1161    0.0000 C   0  0  0  0  0  0  0  0  0  0  0  0
    4.9508    0.7036    0.0000 C   0  0  0  0  0  0  0  0  0  0  0  0
    4.9508   -0.1214    0.0000 C   0  0  0  0  0  0  0  0  0  0  0  0
    4.2364    1.1161    0.0000 C   0  0  0  0  0  0  0  0  0  0  0  0
    8.4477   -0.8418    0.0000 C   0  0  0  0  0  0  0  0  0  0  0  0
    5.6654    1.9412    0.0000 C   0  0  0  0  0  0  0  0  0  0  0  0
    6.4947   -1.3608    0.0000 C   0  0  0  0  0  0  0  0  0  0  0  0
    9.2727   -0.8436    0.0000 C   0  0  0  0  0  0  0  0  0  0  0  0
    9.6837   -1.5588    0.0000 C   0  0  0  0  0  0  0  0  0  0  0  0
   10.5040   -1.6468    0.0000 C   0  0  0  0  0  0  0  0  0  0  0  0
    2.8075    1.1161    0.0000 C   0  0  0  0  0  0  0  0  0  0  0  0
   10.6739   -2.4541    0.0000 C   0  0  0  0  0  0  0  0  0  0  0  0
    9.9586   -2.8652    0.0000 C   0  0  0  0  0  0  0  0  0  0  0  0
    6.5599   -0.7991    0.0000 H   0  0  0  0  0  0  0  0  0  0  0  0
  1 14  1  0  0  0  0
  1 18  1  0  0  0  0
  2 24  1  0  0  0  0
  2 28  1  0  0  0  0
 13  3  1  6  0  0  0
  3 22  1  0  0  0  0
  4 15  2  0  0  0  0
  5 19  1  0  0  0  0
  5 26  1  0  0  0  0
  6 21  1  0  0  0  0
  7 20  2  0  0  0  0
  8 21  2  0  0  0  0
  9 26  2  0  0  0  0
 10 14  1  0  0  0  0
 10 15  1  0  0  0  0
 10 16  1  0  0  0  0
 11 13  1  0  0  0  0
 11 20  1  0  0  0  0
 12 26  1  0  0  0  0
 13 14  1  0  0  0  0
 13 15  1  0  0  0  0
 14 29  1  6  0  0  0
 16 17  2  0  0  0  0
 16 21  1  0  0  0  0
 17 18  1  0  0  0  0
 17 19  1  0  0  0  0
 20 23  1  0  0  0  0
 23 24  1  0  0  0  0
 24 25  2  0  0  0  0
 25 27  1  0  0  0  0
 27 28  2  0  0  0  0
M  END
> <DRUGBANK_ID>
DB01331

> <DRUG_GROUPS>
approved

> <GENERIC_NAME>
Cefoxitin

> <BRANDS>


> <CHEMICAL_FORMULA>
C16H17N3O7S2

> <MOLECULAR_WEIGHT>
427.452

> <EXACT_MASS>
427.050791293

> <IUPAC_NAME>
(6R,7S)-3-[(carbamoyloxy)methyl]-7-methoxy-8-oxo-7-[2-(thiophen-2-yl)acetamido]-5-thia-1-azabicyclo[4.2.0]oct-2-ene-2-carboxylic acid

> <IUPAC_TRADITIONAL_NAME>
cefoxitin

> <INCHI_IDENTIFIER>
InChI=1S/C16H17N3O7S2/c1-25-16(18-10(20)5-9-3-2-4-27-9)13(23)19-11(12(21)22)8(6-26-15(17)24)7-28-14(16)19/h2-4,14H,5-7H2,1H3,(H2,17,24)(H,18,20)(H,21,22)/t14-,16+/m1/s1

> <INCHI_KEY>
InChIKey=WZOZEZRFJCJXNZ-ZBFHGGJFSA-N

> <SMILES>
[H][C@]12SCC(COC(N)=O)=C(N1C(=O)[C@]2(NC(=O)CC1=CC=CS1)OC)C(O)=O

> <JCHEM_ACCEPTOR_COUNT>
6

> <JCHEM_DONOR_COUNT>
3

> <JCHEM_ACIDIC_PKA>
3.59

> <JCHEM_BASIC_PKA>
-3.8

> <JCHEM_PHYSIOLOGICAL_CHARGE>
-1

> <ALOGPS_LOGP>
0.22

> <JCHEM_LOGP>
0.29

> <ALOGPS_LOGS>
-3.3

> <JCHEM_POLARIZABILITY>
39.46

> <JCHEM_POLAR_SURFACE_AREA>
148.26

> <JCHEM_REFRACTIVITY>
98.76

> <JCHEM_ROTATABLE_BOND_COUNT>
8

> <ALOGPS_SOLUBILITY>
1.95e-01 g/l __ 

$$$$
