
  Mrv0541 02231215412D          

  9  8  0  0  1  0            999 V2000
    3.1895   -1.8414    0.0000 C   0  0  0  0  0  0  0  0  0  0  0  0
    2.4750   -1.4289    0.0000 C   0  0  0  0  0  0  0  0  0  0  0  0
    1.7605   -1.8414    0.0000 N   0  0  0  0  0  0  0  0  0  0  0  0
    3.9039   -1.4289    0.0000 C   0  0  0  0  0  0  0  0  0  0  0  0
    4.6184   -1.8414    0.0000 O   0  0  0  0  0  0  0  0  0  0  0  0
    5.3329   -1.4289    0.0000 P   0  0  0  0  0  0  0  0  0  0  0  0
    6.0474   -1.0164    0.0000 O   0  0  0  0  0  0  0  0  0  0  0  0
    5.7454   -2.1434    0.0000 O   0  0  0  0  0  0  0  0  0  0  0  0
    4.9204   -0.7145    0.0000 O   0  0  0  0  0  0  0  0  0  0  0  0
  1  2  1  0  0  0  0
  2  3  1  0  0  0  0
  1  4  1  0  0  0  0
  4  5  1  0  0  0  0
  5  6  1  0  0  0  0
  6  7  1  0  0  0  0
  6  8  1  0  0  0  0
  6  9  2  0  0  0  0
M  END
> <DRUGBANK_ID>
DB01738

> <DRUG_GROUPS>
experimental

> <GENERIC_NAME>
O-Phosphoethanolamine

> <SYNONYMS>
Colamine phosphoric acid

> <CHEMICAL_FORMULA>
C3H10NO4P

> <MOLECULAR_WEIGHT>
155.0896

> <EXACT_MASS>
155.034744325

> <IUPAC_NAME>
(3-aminopropoxy)phosphonic acid

> <IUPAC_TRADITIONAL_NAME>
3-aminopropoxyphosphonic acid

> <INCHI_IDENTIFIER>
InChI=1S/C3H10NO4P/c4-2-1-3-8-9(5,6)7/h1-4H2,(H2,5,6,7)

> <INCHI_KEY>
InChIKey=KUQZVISZELWDNZ-UHFFFAOYSA-N

> <SMILES>
NCCCOP(O)(O)=O

> <JCHEM_ACCEPTOR_COUNT>
4

> <JCHEM_DONOR_COUNT>
3

> <JCHEM_ACIDIC_PKA>
1.77

> <JCHEM_BASIC_PKA>
10.14

> <JCHEM_PHYSIOLOGICAL_CHARGE>
-1

> <ALOGPS_LOGP>
-1.3

> <JCHEM_LOGP>
-2.4

> <ALOGPS_LOGS>
-0.78

> <JCHEM_POLARIZABILITY>
13.25

> <JCHEM_POLAR_SURFACE_AREA>
92.78

> <JCHEM_REFRACTIVITY>
31.95

> <JCHEM_ROTATABLE_BOND_COUNT>
4

> <ALOGPS_SOLUBILITY>
2.55e+01 g/l __ 

$$$$
