
  Mrv0541 02231215492D          

 27 29  0  0  1  0            999 V2000
   -3.7027    0.5457    0.0000 N   0  0  0  0  0  0  0  0  0  0  0  0
   -3.7027    1.3707    0.0000 C   0  0  2  0  0  0  0  0  0  0  0  0
   -4.4172    1.7832    0.0000 C   0  0  0  0  0  0  0  0  0  0  0  0
   -5.1317    1.3707    0.0000 C   0  0  0  0  0  0  0  0  0  0  0  0
   -5.8461    1.7832    0.0000 C   0  0  1  0  0  0  0  0  0  0  0  0
   -5.8461    2.6082    0.0000 N   0  0  0  0  0  0  0  0  0  0  0  0
   -6.5606    1.3707    0.0000 C   0  0  0  0  0  0  0  0  0  0  0  0
   -7.2751    1.7832    0.0000 O   0  0  0  0  0  0  0  0  0  0  0  0
   -6.5606    0.5457    0.0000 O   0  0  0  0  0  0  0  0  0  0  0  0
   -2.9883    1.7832    0.0000 C   0  0  0  0  0  0  0  0  0  0  0  0
   -2.2738    1.3707    0.0000 C   0  0  2  0  0  0  0  0  0  0  0  0
   -1.5201    1.7062    0.0000 O   0  0  0  0  0  0  0  0  0  0  0  0
   -0.9681    1.0931    0.0000 C   0  0  2  0  0  0  0  0  0  0  0  0
   -1.3806    0.3787    0.0000 C   0  0  2  0  0  0  0  0  0  0  0  0
   -1.0450   -0.3750    0.0000 O   0  0  0  0  0  0  0  0  0  0  0  0
   -2.1876    0.5502    0.0000 C   0  0  1  0  0  0  0  0  0  0  0  0
   -2.8007   -0.0019    0.0000 O   0  0  0  0  0  0  0  0  0  0  0  0
   -0.1476    1.1794    0.0000 N   0  0  0  0  0  0  0  0  0  0  0  0
    0.4044    0.5663    0.0000 C   0  0  0  0  0  0  0  0  0  0  0  0
    1.1581    0.9018    0.0000 N   0  0  0  0  0  0  0  0  0  0  0  0
    1.0719    1.7223    0.0000 C   0  0  0  0  0  0  0  0  0  0  0  0
    0.2649    1.8938    0.0000 C   0  0  0  0  0  0  0  0  0  0  0  0
    0.0100    2.6785    0.0000 N   0  0  0  0  0  0  0  0  0  0  0  0
    0.5620    3.2915    0.0000 C   0  0  0  0  0  0  0  0  0  0  0  0
    1.3690    3.1200    0.0000 N   0  0  0  0  0  0  0  0  0  0  0  0
    1.6239    2.3354    0.0000 C   0  0  0  0  0  0  0  0  0  0  0  0
    2.4309    2.1639    0.0000 N   0  0  0  0  0  0  0  0  0  0  0  0
  2  1  1  6  0  0  0
  2  3  1  0  0  0  0
  3  4  1  0  0  0  0
  4  5  1  0  0  0  0
  5  6  1  6  0  0  0
  5  7  1  0  0  0  0
  7  8  1  0  0  0  0
  7  9  2  0  0  0  0
  2 10  1  0  0  0  0
 11 10  1  6  0  0  0
 11 12  1  0  0  0  0
 12 13  1  0  0  0  0
 13 14  1  0  0  0  0
 14 15  1  6  0  0  0
 14 16  1  0  0  0  0
 11 16  1  0  0  0  0
 16 17  1  1  0  0  0
 13 18  1  1  0  0  0
 18 19  1  0  0  0  0
 19 20  2  0  0  0  0
 20 21  1  0  0  0  0
 21 22  2  0  0  0  0
 18 22  1  0  0  0  0
 22 23  1  0  0  0  0
 23 24  2  0  0  0  0
 24 25  1  0  0  0  0
 25 26  2  0  0  0  0
 21 26  1  0  0  0  0
 26 27  1  0  0  0  0
M  END
> <DRUGBANK_ID>
DB01910

> <DRUG_GROUPS>
experimental

> <GENERIC_NAME>
Adenosyl-Ornithine

> <CHEMICAL_FORMULA>
C15H23N7O5

> <MOLECULAR_WEIGHT>
381.387

> <EXACT_MASS>
381.176066881

> <IUPAC_NAME>
(2R,5R)-2,5-diamino-6-[(2S,3R,4R,5R)-5-(6-amino-9H-purin-9-yl)-3,4-dihydroxyoxolan-2-yl]hexanoic acid

> <IUPAC_TRADITIONAL_NAME>
adenosyl-ornithine

> <INCHI_IDENTIFIER>
InChI=1S/C15H23N7O5/c16-6(1-2-7(17)15(25)26)3-8-10(23)11(24)14(27-8)22-5-21-9-12(18)19-4-20-13(9)22/h4-8,10-11,14,23-24H,1-3,16-17H2,(H,25,26)(H2,18,19,20)/t6-,7-,8+,10+,11-,14-/m1/s1

> <INCHI_KEY>
InChIKey=LMXOHSDXUQEUSF-CMDGEXLLSA-N

> <SMILES>
N[C@H](CC[C@@H](N)C(O)=O)C[C@@H]1O[C@H]([C@H](O)[C@H]1O)N1C=NC2=C1N=CN=C2N

> <JCHEM_ACCEPTOR_COUNT>
11

> <JCHEM_DONOR_COUNT>
6

> <JCHEM_ACIDIC_PKA>
1.95

> <JCHEM_BASIC_PKA>
10.18

> <JCHEM_PHYSIOLOGICAL_CHARGE>
1

> <ALOGPS_LOGP>
-3

> <JCHEM_LOGP>
-5.1

> <ALOGPS_LOGS>
-1.9

> <JCHEM_POLARIZABILITY>
37.63

> <JCHEM_POLAR_SURFACE_AREA>
208.65

> <JCHEM_REFRACTIVITY>
92.68

> <JCHEM_ROTATABLE_BOND_COUNT>
7

> <ALOGPS_SOLUBILITY>
4.63e+00 g/l __ 

$$$$
