
  Mrv0541 02231216272D          

 19 19  0  0  1  0            999 V2000
    2.0198    0.8843    0.0000 O   0  0  0  0  0  0  0  0  0  0  0  0
    1.2352    0.6294    0.0000 C   0  0  2  0  0  0  0  0  0  0  0  0
    0.9803   -0.1553    0.0000 C   0  0  1  0  0  0  0  0  0  0  0  0
    1.4652   -0.8227    0.0000 O   0  0  0  0  0  0  0  0  0  0  0  0
    0.1553   -0.1553    0.0000 C   0  0  2  0  0  0  0  0  0  0  0  0
   -0.3297   -0.8227    0.0000 C   0  0  0  0  0  0  0  0  0  0  0  0
    0.0059   -1.5764    0.0000 O   0  0  0  0  0  0  0  0  0  0  0  0
   -0.4790   -2.2438    0.0000 P   0  0  0  0  0  0  0  0  0  0  0  0
   -0.9640   -2.9112    0.0000 O   0  0  0  0  0  0  0  0  0  0  0  0
    0.1884   -2.7287    0.0000 O   0  0  0  0  0  0  0  0  0  0  0  0
   -1.1465   -1.7589    0.0000 O   0  0  0  0  0  0  0  0  0  0  0  0
   -0.0997    0.6294    0.0000 O   0  0  0  0  0  0  0  0  0  0  0  0
    0.5678    1.1143    0.0000 C   0  0  1  0  0  0  0  0  0  0  0  0
    0.5678    1.9393    0.0000 C   0  0  0  0  0  0  0  0  0  0  0  0
    1.2822    2.3518    0.0000 O   0  0  0  0  0  0  0  0  0  0  0  0
    1.2822    3.1768    0.0000 P   0  0  0  0  0  0  0  0  0  0  0  0
    1.2822    4.0018    0.0000 O   0  0  0  0  0  0  0  0  0  0  0  0
    2.1072    3.1768    0.0000 O   0  0  0  0  0  0  0  0  0  0  0  0
    0.4572    3.1768    0.0000 O   0  0  0  0  0  0  0  0  0  0  0  0
  2  1  1  6  0  0  0
  2  3  1  0  0  0  0
  3  4  1  1  0  0  0
  3  5  1  0  0  0  0
  5  6  1  6  0  0  0
  6  7  1  0  0  0  0
  7  8  1  0  0  0  0
  8  9  1  0  0  0  0
  8 10  1  0  0  0  0
  8 11  2  0  0  0  0
  5 12  1  0  0  0  0
 12 13  1  0  0  0  0
  2 13  1  0  0  0  0
 13 14  1  1  0  0  0
 14 15  1  0  0  0  0
 15 16  1  0  0  0  0
 16 17  1  0  0  0  0
 16 18  1  0  0  0  0
 16 19  2  0  0  0  0
M  END
> <DRUGBANK_ID>
DB02778

> <DRUG_GROUPS>
experimental

> <GENERIC_NAME>
2,5-Anhydroglucitol-1,6-Biphosphate

> <CHEMICAL_FORMULA>
C6H14O11P2

> <MOLECULAR_WEIGHT>
324.1163

> <EXACT_MASS>
324.001134314

> <IUPAC_NAME>
{[(2S,3R,4R,5S)-3,4-dihydroxy-5-[(phosphonooxy)methyl]oxolan-2-yl]methoxy}phosphonic acid

> <IUPAC_TRADITIONAL_NAME>
[(2S,3R,4R,5S)-3,4-dihydroxy-5-[(phosphonooxy)methyl]oxolan-2-yl]methoxyphosphonic acid

> <INCHI_IDENTIFIER>
InChI=1S/C6H14O11P2/c7-5-3(1-15-18(9,10)11)17-4(6(5)8)2-16-19(12,13)14/h3-8H,1-2H2,(H2,9,10,11)(H2,12,13,14)/t3-,4-,5-,6-/m0/s1

> <INCHI_KEY>
InChIKey=WSMBXSQDFPTODV-BXKVDMCESA-N

> <SMILES>
O[C@@H]1[C@@H](O)[C@H](COP(O)(O)=O)O[C@H]1COP(O)(O)=O

> <JCHEM_ACCEPTOR_COUNT>
9

> <JCHEM_DONOR_COUNT>
6

> <JCHEM_ACIDIC_PKA>
0.93

> <JCHEM_BASIC_PKA>
-3.6

> <JCHEM_PHYSIOLOGICAL_CHARGE>
-4

> <ALOGPS_LOGP>
-1.5

> <JCHEM_LOGP>
-2.8

> <ALOGPS_LOGS>
-1.3

> <JCHEM_POLARIZABILITY>
24.63

> <JCHEM_POLAR_SURFACE_AREA>
183.21

> <JCHEM_REFRACTIVITY>
56.64

> <JCHEM_ROTATABLE_BOND_COUNT>
6

> <ALOGPS_SOLUBILITY>
1.60e+01 g/l __ 

$$$$
