
  Mrv0541 02231216162D          

 13 13  0  0  1  0            999 V2000
    2.1434    2.0625    0.0000 O   0  0  0  0  0  0  0  0  0  0  0  0
    2.1434    1.2375    0.0000 C   0  0  0  0  0  0  0  0  0  0  0  0
    1.4289    0.8250    0.0000 C   0  0  1  0  0  0  0  0  0  0  0  0
    1.4289    0.0000    0.0000 N   0  0  0  0  0  0  0  0  0  0  0  0
    0.7145   -0.4125    0.0000 C   0  0  0  0  0  0  0  0  0  0  0  0
    0.7145   -1.2375    0.0000 N   0  0  0  0  0  0  0  0  0  0  0  0
    1.4289   -1.6500    0.0000 O   0  0  0  0  0  0  0  0  0  0  0  0
    0.0000    0.0000    0.0000 C   0  0  1  0  0  0  0  0  0  0  0  0
   -0.7145   -0.4125    0.0000 O   0  0  0  0  0  0  0  0  0  0  0  0
    0.0000    0.8250    0.0000 C   0  0  1  0  0  0  0  0  0  0  0  0
   -0.7145    1.2375    0.0000 O   0  0  0  0  0  0  0  0  0  0  0  0
    0.7145    1.2375    0.0000 C   0  0  2  0  0  0  0  0  0  0  0  0
    0.7145    2.0625    0.0000 O   0  0  0  0  0  0  0  0  0  0  0  0
  1  2  1  0  0  0  0
  3  2  1  1  0  0  0
  3  4  1  0  0  0  0
  4  5  1  0  0  0  0
  5  6  2  0  0  0  0
  6  7  1  0  0  0  0
  5  8  1  0  0  0  0
  8  9  1  1  0  0  0
  8 10  1  0  0  0  0
 10 11  1  1  0  0  0
 10 12  1  0  0  0  0
  3 12  1  0  0  0  0
 12 13  1  6  0  0  0
M  END
> <DRUGBANK_ID>
DB02525

> <DRUG_GROUPS>
experimental

> <GENERIC_NAME>
D-Galactohydroximo-1,5-Lactam

> <CHEMICAL_FORMULA>
C6H12N2O5

> <MOLECULAR_WEIGHT>
192.1699

> <EXACT_MASS>
192.074621504

> <IUPAC_NAME>
(2Z,3R,4S,5R,6R)-2-(hydroxyimino)-6-(hydroxymethyl)piperidine-3,4,5-triol

> <IUPAC_TRADITIONAL_NAME>
(2Z,3R,4S,5R,6R)-2-(hydroxyimino)-6-(hydroxymethyl)piperidine-3,4,5-triol

> <INCHI_IDENTIFIER>
InChI=1S/C6H12N2O5/c9-1-2-3(10)4(11)5(12)6(7-2)8-13/h2-5,9-13H,1H2,(H,7,8)/t2-,3-,4+,5+/m1/s1

> <INCHI_KEY>
InChIKey=VBXHGXTYZGYTQG-MBMOQRBOSA-N

> <SMILES>
OC[C@H]1N\C(=N/O)[C@@H](O)[C@@H](O)[C@@H]1O

> <JCHEM_ACCEPTOR_COUNT>
7

> <JCHEM_DONOR_COUNT>
6

> <JCHEM_ACIDIC_PKA>
9.57

> <JCHEM_BASIC_PKA>
0.6

> <JCHEM_PHYSIOLOGICAL_CHARGE>
0

> <ALOGPS_LOGP>
-2.6

> <JCHEM_LOGP>
-3.4

> <ALOGPS_LOGS>
-0.34

> <JCHEM_POLARIZABILITY>
17.53

> <JCHEM_POLAR_SURFACE_AREA>
125.54

> <JCHEM_REFRACTIVITY>
40.55

> <JCHEM_ROTATABLE_BOND_COUNT>
1

> <ALOGPS_SOLUBILITY>
8.84e+01 g/l __ 

$$$$
