NU1
  Mrv0541 02231216232D          

 13 14  0  0  0  0            999 V2000
   -0.9166    0.6423    0.0000 C   0  0  0  0  0  0  0  0  0  0  0  0
   -0.9166    1.4673    0.0000 O   0  0  0  0  0  0  0  0  0  0  0  0
   -0.2021    0.2298    0.0000 C   0  0  0  0  0  0  0  0  0  0  0  0
    0.5124    0.6423    0.0000 N   0  0  0  0  0  0  0  0  0  0  0  0
    1.2269    0.2298    0.0000 C   0  0  0  0  0  0  0  0  0  0  0  0
    1.9413    0.6423    0.0000 C   0  0  0  0  0  0  0  0  0  0  0  0
    1.2269   -0.5952    0.0000 N   0  0  0  0  0  0  0  0  0  0  0  0
    0.5124   -1.0077    0.0000 C   0  0  0  0  0  0  0  0  0  0  0  0
    0.5124   -1.8327    0.0000 O   0  0  0  0  0  0  0  0  0  0  0  0
   -0.2021   -0.5952    0.0000 C   0  0  0  0  0  0  0  0  0  0  0  0
   -0.9166   -1.0077    0.0000 C   0  0  0  0  0  0  0  0  0  0  0  0
   -1.6310   -0.5952    0.0000 C   0  0  0  0  0  0  0  0  0  0  0  0
   -1.6310    0.2298    0.0000 C   0  0  0  0  0  0  0  0  0  0  0  0
  1  2  1  0  0  0  0
  1  3  1  0  0  0  0
  1 13  2  0  0  0  0
  3  4  1  0  0  0  0
  3 10  2  0  0  0  0
  4  5  2  0  0  0  0
  5  6  1  0  0  0  0
  5  7  1  0  0  0  0
  7  8  1  0  0  0  0
  8  9  2  0  0  0  0
  8 10  1  0  0  0  0
 10 11  1  0  0  0  0
 11 12  2  0  0  0  0
 12 13  1  0  0  0  0
M  END
> <DRUGBANK_ID>
DB02690

> <DRUG_GROUPS>
experimental

> <GENERIC_NAME>
NU1025

> <CHEMICAL_FORMULA>
C9H8N2O2

> <MOLECULAR_WEIGHT>
176.172

> <EXACT_MASS>
176.05857751

> <IUPAC_NAME>
8-hydroxy-2-methyl-3,4-dihydroquinazolin-4-one

> <IUPAC_TRADITIONAL_NAME>
8-hydroxy-2-methyl-3H-quinazolin-4-one

> <INCHI_IDENTIFIER>
InChI=1S/C9H8N2O2/c1-5-10-8-6(9(13)11-5)3-2-4-7(8)12/h2-4,12H,1H3,(H,10,11,13)

> <INCHI_KEY>
InChIKey=YJDAOHJWLUNFLX-UHFFFAOYSA-N

> <SMILES>
CC1=NC2=C(C=CC=C2O)C(=O)N1

> <JCHEM_ACCEPTOR_COUNT>
3

> <JCHEM_DONOR_COUNT>
2

> <JCHEM_ACIDIC_PKA>
7.65

> <JCHEM_BASIC_PKA>
1.72

> <JCHEM_PHYSIOLOGICAL_CHARGE>
0

> <ALOGPS_LOGP>
0.48

> <JCHEM_LOGP>
0.47

> <ALOGPS_LOGS>
-2.2

> <JCHEM_POLARIZABILITY>
17.33

> <JCHEM_POLAR_SURFACE_AREA>
61.69

> <JCHEM_REFRACTIVITY>
49.37

> <JCHEM_ROTATABLE_BOND_COUNT>
0

> <ALOGPS_SOLUBILITY>
1.04e+00 g/l __ 

$$$$
