
  Mrv0541 02231216252D          

 62 70  0  0  1  0            999 V2000
   -5.2296   -4.5725    0.0000 O   0  0  0  0  0  0  0  0  0  0  0  0
   -5.0460   -3.7682    0.0000 C   0  0  2  0  0  0  0  0  0  0  0  0
   -5.6910   -3.2539    0.0000 C   0  0  1  0  0  0  0  0  0  0  0  0
   -6.4343   -3.6118    0.0000 O   0  0  0  0  0  0  0  0  0  0  0  0
   -5.6910   -2.4289    0.0000 C   0  0  1  0  0  0  0  0  0  0  0  0
   -6.4343   -2.0709    0.0000 C   0  0  0  0  0  0  0  0  0  0  0  0
   -7.1159   -2.5356    0.0000 C   0  0  0  0  0  0  0  0  0  0  0  0
   -7.0543   -3.3583    0.0000 C   0  0  0  0  0  0  0  0  0  0  0  0
   -7.7359   -3.8231    0.0000 C   0  0  0  0  0  0  0  0  0  0  0  0
   -8.4792   -3.4651    0.0000 C   0  0  0  0  0  0  0  0  0  0  0  0
   -8.5409   -2.6424    0.0000 C   0  0  0  0  0  0  0  0  0  0  0  0
   -7.8592   -2.1777    0.0000 C   0  0  0  0  0  0  0  0  0  0  0  0
   -5.0460   -1.9145    0.0000 N   0  0  0  0  0  0  0  0  0  0  0  0
   -5.2296   -1.1102    0.0000 C   0  0  0  0  0  0  0  0  0  0  0  0
   -6.0179   -0.8670    0.0000 C   0  0  0  0  0  0  0  0  0  0  0  0
   -6.6227   -1.4281    0.0000 C   0  0  0  0  0  0  0  0  0  0  0  0
   -7.4110   -1.1850    0.0000 C   0  0  0  0  0  0  0  0  0  0  0  0
   -7.5946   -0.3806    0.0000 C   0  0  0  0  0  0  0  0  0  0  0  0
   -6.9898    0.1805    0.0000 C   0  0  0  0  0  0  0  0  0  0  0  0
   -6.2015   -0.0627    0.0000 C   0  0  0  0  0  0  0  0  0  0  0  0
   -7.1734    0.9848    0.0000 C   0  0  0  0  0  0  0  0  0  0  0  0
   -7.9618    1.2280    0.0000 O   0  0  0  0  0  0  0  0  0  0  0  0
   -6.5686    1.5460    0.0000 N   0  0  0  0  0  0  0  0  0  0  0  0
   -5.7803    1.3028    0.0000 C   0  0  0  0  0  0  0  0  0  0  0  0
   -5.1202    1.7976    0.0000 N   0  0  0  0  0  0  0  0  0  0  0  0
   -4.4456    1.3228    0.0000 C   0  0  0  0  0  0  0  0  0  0  0  0
   -3.6412    1.5063    0.0000 C   0  0  0  0  0  0  0  0  0  0  0  0
   -3.0801    0.9016    0.0000 C   0  0  0  0  0  0  0  0  0  0  0  0
   -3.3233    0.1132    0.0000 C   0  0  0  0  0  0  0  0  0  0  0  0
   -4.1276   -0.0704    0.0000 C   0  0  0  0  0  0  0  0  0  0  0  0
   -4.6887    0.5344    0.0000 C   0  0  0  0  0  0  0  0  0  0  0  0
   -5.5136    0.5221    0.0000 N   0  0  0  0  0  0  0  0  0  0  0  0
   -4.2417   -2.0981    0.0000 C   0  0  0  0  0  0  0  0  0  0  0  0
   -3.7273   -1.4530    0.0000 O   0  0  0  0  0  0  0  0  0  0  0  0
   -3.8837   -2.8414    0.0000 N   0  0  0  0  0  0  0  0  0  0  0  0
   -3.0587   -2.8414    0.0000 C   0  0  0  0  0  0  0  0  0  0  0  0
   -2.6462   -2.1269    0.0000 C   0  0  0  0  0  0  0  0  0  0  0  0
   -3.0587   -1.4124    0.0000 C   0  0  0  0  0  0  0  0  0  0  0  0
   -2.6462   -0.6979    0.0000 C   0  0  0  0  0  0  0  0  0  0  0  0
   -1.8212   -0.6979    0.0000 C   0  0  0  0  0  0  0  0  0  0  0  0
   -1.4087   -1.4124    0.0000 C   0  0  0  0  0  0  0  0  0  0  0  0
   -1.8212   -2.1269    0.0000 C   0  0  0  0  0  0  0  0  0  0  0  0
   -0.5837   -1.4124    0.0000 C   0  0  0  0  0  0  0  0  0  0  0  0
   -0.1712   -2.1269    0.0000 O   0  0  0  0  0  0  0  0  0  0  0  0
   -0.1712   -0.6979    0.0000 N   0  0  0  0  0  0  0  0  0  0  0  0
    0.6538   -0.6979    0.0000 C   0  0  0  0  0  0  0  0  0  0  0  0
    1.1387   -0.0305    0.0000 N   0  0  0  0  0  0  0  0  0  0  0  0
    1.9233   -0.2854    0.0000 C   0  0  0  0  0  0  0  0  0  0  0  0
    2.6378    0.1271    0.0000 C   0  0  0  0  0  0  0  0  0  0  0  0
    3.3523   -0.2854    0.0000 C   0  0  0  0  0  0  0  0  0  0  0  0
    3.3523   -1.1104    0.0000 C   0  0  0  0  0  0  0  0  0  0  0  0
    2.6378   -1.5229    0.0000 C   0  0  0  0  0  0  0  0  0  0  0  0
    1.9233   -1.1104    0.0000 C   0  0  0  0  0  0  0  0  0  0  0  0
    1.1387   -1.3654    0.0000 N   0  0  0  0  0  0  0  0  0  0  0  0
   -4.2417   -3.5847    0.0000 C   0  0  1  0  0  0  0  0  0  0  0  0
   -3.7273   -4.2297    0.0000 C   0  0  0  0  0  0  0  0  0  0  0  0
   -4.0287   -4.9976    0.0000 C   0  0  0  0  0  0  0  0  0  0  0  0
   -3.5143   -5.6426    0.0000 C   0  0  0  0  0  0  0  0  0  0  0  0
   -3.8157   -6.4106    0.0000 C   0  0  0  0  0  0  0  0  0  0  0  0
   -4.6315   -6.5336    0.0000 C   0  0  0  0  0  0  0  0  0  0  0  0
   -5.1459   -5.8886    0.0000 C   0  0  0  0  0  0  0  0  0  0  0  0
   -4.8445   -5.1206    0.0000 C   0  0  0  0  0  0  0  0  0  0  0  0
  2  1  1  6  0  0  0
  2  3  1  0  0  0  0
  3  4  1  1  0  0  0
  3  5  1  0  0  0  0
  5  6  1  1  0  0  0
  6  7  1  0  0  0  0
  7  8  2  0  0  0  0
  8  9  1  0  0  0  0
  9 10  2  0  0  0  0
 10 11  1  0  0  0  0
 11 12  2  0  0  0  0
  7 12  1  0  0  0  0
  5 13  1  0  0  0  0
 13 14  1  0  0  0  0
 14 15  1  0  0  0  0
 15 16  2  0  0  0  0
 16 17  1  0  0  0  0
 17 18  2  0  0  0  0
 18 19  1  0  0  0  0
 19 20  2  0  0  0  0
 15 20  1  0  0  0  0
 19 21  1  0  0  0  0
 21 22  2  0  0  0  0
 21 23  1  0  0  0  0
 23 24  1  0  0  0  0
 24 25  4  0  0  0  0
 25 26  4  0  0  0  0
 26 27  4  0  0  0  0
 27 28  4  0  0  0  0
 28 29  4  0  0  0  0
 29 30  4  0  0  0  0
 30 31  4  0  0  0  0
 26 31  4  0  0  0  0
 31 32  4  0  0  0  0
 24 32  4  0  0  0  0
 13 33  1  0  0  0  0
 33 34  2  0  0  0  0
 33 35  1  0  0  0  0
 35 36  1  0  0  0  0
 36 37  1  0  0  0  0
 37 38  2  0  0  0  0
 38 39  1  0  0  0  0
 39 40  2  0  0  0  0
 40 41  1  0  0  0  0
 41 42  2  0  0  0  0
 37 42  1  0  0  0  0
 41 43  1  0  0  0  0
 43 44  2  0  0  0  0
 43 45  1  0  0  0  0
 45 46  1  0  0  0  0
 46 47  4  0  0  0  0
 47 48  4  0  0  0  0
 48 49  4  0  0  0  0
 49 50  4  0  0  0  0
 50 51  4  0  0  0  0
 51 52  4  0  0  0  0
 52 53  4  0  0  0  0
 48 53  4  0  0  0  0
 53 54  4  0  0  0  0
 46 54  4  0  0  0  0
 35 55  1  0  0  0  0
  2 55  1  0  0  0  0
 55 56  1  1  0  0  0
 56 57  1  0  0  0  0
 57 58  2  0  0  0  0
 58 59  1  0  0  0  0
 59 60  2  0  0  0  0
 60 61  1  0  0  0  0
 61 62  2  0  0  0  0
 57 62  1  0  0  0  0
M  END
> <DRUGBANK_ID>
DB02729

> <DRUG_GROUPS>
experimental

> <GENERIC_NAME>
SD146

> <CHEMICAL_FORMULA>
C49H42N8O5

> <MOLECULAR_WEIGHT>
822.9084

> <EXACT_MASS>
822.327816494

> <IUPAC_NAME>
N-(1,3-benzodiazol-2-yl)-3-{[(4S,5S,6S,7R)-3-({3-[(1,3-benzodiazol-2-yl)carbamoyl]phenyl}methyl)-4,7-dibenzyl-5,6-dihydroxy-2-oxo-1,3-diazepan-1-yl]methyl}benzamide

> <IUPAC_TRADITIONAL_NAME>
N-(1,3-benzodiazol-2-yl)-3-{[(4S,5S,6S,7R)-3-({3-[(1,3-benzodiazol-2-yl)carbamoyl]phenyl}methyl)-4,7-dibenzyl-5,6-dihydroxy-2-oxo-1,3-diazepan-1-yl]methyl}benzamide

> <SMILES>
O[C@@H]1[C@@H](O)[C@@H](CC2=CC=CC=C2)N(CC2=CC=CC(=C2)C(=O)Nc2nc3ccccc3n2)C(=O)N(CC2=CC=CC(=C2)C(=O)Nc2nc3ccccc3n2)[C@H]1CC1=CC=CC=C1

> <JCHEM_ACCEPTOR_COUNT>
9

> <JCHEM_DONOR_COUNT>
4

> <JCHEM_ACIDIC_PKA>
9.14

> <JCHEM_BASIC_PKA>
-1.4

> <JCHEM_PHYSIOLOGICAL_CHARGE>
0

> <ALOGPS_LOGP>
5.59

> <JCHEM_LOGP>
8.25

> <ALOGPS_LOGS>
-5.2

> <JCHEM_POLARIZABILITY>
87.1

> <JCHEM_POLAR_SURFACE_AREA>
173.77

> <JCHEM_REFRACTIVITY>
237

> <JCHEM_ROTATABLE_BOND_COUNT>
12

> <ALOGPS_SOLUBILITY>
5.38e-03 g/l __ 

$$$$
