NFP
  Mrv0541 02231216312D          

 22 23  0  0  0  0            999 V2000
    0.7926   -0.4753    0.0000 C   0  0  0  0  0  0  0  0  0  0  0  0
    0.0781   -0.0628    0.0000 C   0  0  0  0  0  0  0  0  0  0  0  0
   -0.6364   -0.4753    0.0000 C   0  0  1  0  0  0  0  0  0  0  0  0
   -0.6364   -1.3003    0.0000 N   0  0  0  0  0  0  0  0  0  0  0  0
   -1.3508   -0.0628    0.0000 C   0  0  0  0  0  0  0  0  0  0  0  0
   -2.0653   -0.4753    0.0000 C   0  0  0  0  0  0  0  0  0  0  0  0
   -2.7798   -0.0628    0.0000 C   0  0  0  0  0  0  0  0  0  0  0  0
   -3.4942   -0.4753    0.0000 C   0  0  0  0  0  0  0  0  0  0  0  0
   -4.2087   -0.0628    0.0000 C   0  0  0  0  0  0  0  0  0  0  0  0
   -4.2087    0.7622    0.0000 C   0  0  0  0  0  0  0  0  0  0  0  0
   -3.4942    1.1747    0.0000 C   0  0  0  0  0  0  0  0  0  0  0  0
   -2.7798    0.7622    0.0000 C   0  0  0  0  0  0  0  0  0  0  0  0
    3.6505    1.1747    0.0000 C   0  0  0  0  0  0  0  0  0  0  0  0
    3.6505    0.3497    0.0000 C   0  0  0  0  0  0  0  0  0  0  0  0
    2.9360   -0.0628    0.0000 C   0  0  0  0  0  0  0  0  0  0  0  0
    2.2215    0.3497    0.0000 C   0  0  0  0  0  0  0  0  0  0  0  0
    1.5071   -0.0628    0.0000 S   0  0  0  0  0  0  0  0  0  0  0  0
    1.9196   -0.7773    0.0000 O   0  0  0  0  0  0  0  0  0  0  0  0
    1.0946    0.6516    0.0000 O   0  0  0  0  0  0  0  0  0  0  0  0
    2.2215    1.1747    0.0000 C   0  0  0  0  0  0  0  0  0  0  0  0
    2.9360    1.5872    0.0000 C   0  0  0  0  0  0  0  0  0  0  0  0
   -0.1307   -0.7673    0.0000 H   0  0  0  0  0  0  0  0  0  0  0  0
  1  2  1  0  0  0  0
  1 17  1  0  0  0  0
  2  3  1  0  0  0  0
  3  4  1  1  0  0  0
  3  5  1  0  0  0  0
  3 22  1  6  0  0  0
  5  6  1  0  0  0  0
  6  7  1  0  0  0  0
  7  8  2  0  0  0  0
  7 12  1  0  0  0  0
  8  9  1  0  0  0  0
  9 10  2  0  0  0  0
 10 11  1  0  0  0  0
 11 12  2  0  0  0  0
 13 14  2  0  0  0  0
 13 21  1  0  0  0  0
 14 15  1  0  0  0  0
 15 16  2  0  0  0  0
 16 17  1  0  0  0  0
 16 20  1  0  0  0  0
 17 18  2  0  0  0  0
 17 19  2  0  0  0  0
 20 21  2  0  0  0  0
M  END
> <DRUGBANK_ID>
DB02869

> <DRUG_GROUPS>
experimental

> <GENERIC_NAME>
3-Amino-5-Phenylpentane

> <CHEMICAL_FORMULA>
C17H21NO2S

> <MOLECULAR_WEIGHT>
303.419

> <EXACT_MASS>
303.129299611

> <IUPAC_NAME>
(3S)-1-(benzenesulfonyl)-5-phenylpentan-3-amine

> <IUPAC_TRADITIONAL_NAME>
(3S)-1-(benzenesulfonyl)-5-phenylpentan-3-amine

> <INCHI_IDENTIFIER>
InChI=1S/C17H21NO2S/c18-16(12-11-15-7-3-1-4-8-15)13-14-21(19,20)17-9-5-2-6-10-17/h1-10,16H,11-14,18H2/t16-/m0/s1

> <INCHI_KEY>
InChIKey=WQRZZKAHRWPIFX-INIZCTEOSA-N

> <SMILES>
[H][C@](N)(CCC1=CC=CC=C1)CCS(=O)(=O)C1=CC=CC=C1

> <JCHEM_ACCEPTOR_COUNT>
3

> <JCHEM_DONOR_COUNT>
1

> <JCHEM_ACIDIC_PKA>
19.73

> <JCHEM_BASIC_PKA>
9.46

> <JCHEM_PHYSIOLOGICAL_CHARGE>
1

> <ALOGPS_LOGP>
2.26

> <JCHEM_LOGP>
2.75

> <ALOGPS_LOGS>
-5

> <JCHEM_POLARIZABILITY>
33.24

> <JCHEM_POLAR_SURFACE_AREA>
60.16

> <JCHEM_REFRACTIVITY>
86.43

> <JCHEM_ROTATABLE_BOND_COUNT>
7

> <ALOGPS_SOLUBILITY>
3.02e-03 g/l __ 

$$$$
