
  Mrv0541 02231216142D          

 12 13  0  0  0  0            999 V2000
   -0.3984    0.7541    0.0000 C   0  0  0  0  0  0  0  0  0  0  0  0
   -0.1435   -0.0305    0.0000 N   0  0  0  0  0  0  0  0  0  0  0  0
   -0.6284   -0.6979    0.0000 C   0  0  0  0  0  0  0  0  0  0  0  0
   -0.1435   -1.3654    0.0000 N   0  0  0  0  0  0  0  0  0  0  0  0
    0.6411   -1.1104    0.0000 C   0  0  0  0  0  0  0  0  0  0  0  0
    0.6411   -0.2854    0.0000 C   0  0  0  0  0  0  0  0  0  0  0  0
    1.3556    0.1271    0.0000 N   0  0  0  0  0  0  0  0  0  0  0  0
    2.0701   -0.2854    0.0000 C   0  0  0  0  0  0  0  0  0  0  0  0
    2.7845    0.1271    0.0000 N   0  0  0  0  0  0  0  0  0  0  0  0
    2.0701   -1.1104    0.0000 N   0  0  0  0  0  0  0  0  0  0  0  0
    1.3556   -1.5229    0.0000 C   0  0  0  0  0  0  0  0  0  0  0  0
    1.3556   -2.3479    0.0000 O   0  0  0  0  0  0  0  0  0  0  0  0
  1  2  1  0  0  0  0
  2  3  1  0  0  0  0
  3  4  2  0  0  0  0
  4  5  1  0  0  0  0
  5  6  2  0  0  0  0
  2  6  1  0  0  0  0
  6  7  1  0  0  0  0
  7  8  2  0  0  0  0
  8  9  1  0  0  0  0
  8 10  1  0  0  0  0
 10 11  2  0  0  0  0
  5 11  1  0  0  0  0
 11 12  1  0  0  0  0
M  END
> <DRUGBANK_ID>
DB02489

> <DRUG_GROUPS>
experimental

> <GENERIC_NAME>
9-Methylguanine

> <CHEMICAL_FORMULA>
C6H7N5O

> <MOLECULAR_WEIGHT>
165.1527

> <EXACT_MASS>
165.065059871

> <IUPAC_NAME>
2-amino-9-methyl-9H-purin-6-ol

> <IUPAC_TRADITIONAL_NAME>
9-methylguanine

> <INCHI_IDENTIFIER>
InChI=1S/C6H7N5O/c1-11-2-8-3-4(11)9-6(7)10-5(3)12/h2H,1H3,(H3,7,9,10,12)

> <INCHI_KEY>
InChIKey=UUWJNBOCAPUTBK-UHFFFAOYSA-N

> <SMILES>
CN1C=NC2=C1N=C(N)N=C2O

> <JCHEM_ACCEPTOR_COUNT>
5

> <JCHEM_DONOR_COUNT>
2

> <JCHEM_ACIDIC_PKA>
11.62

> <JCHEM_BASIC_PKA>
1.22

> <JCHEM_PHYSIOLOGICAL_CHARGE>
0

> <ALOGPS_LOGP>
-0.66

> <JCHEM_LOGP>
0.068

> <ALOGPS_LOGS>
-1.3

> <JCHEM_POLARIZABILITY>
15.58

> <JCHEM_POLAR_SURFACE_AREA>
89.85

> <JCHEM_REFRACTIVITY>
43.42

> <JCHEM_ROTATABLE_BOND_COUNT>
0

> <ALOGPS_SOLUBILITY>
8.33e+00 g/l __ 

$$$$
