
  Mrv0541 02231216292D          

  4  3  0  0  0  0            999 V2000
    1.2375    0.7145    0.0000 C   0  0  0  0  0  0  0  0  0  0  0  0
    0.8250    0.0000    0.0000 P   0  0  2  0  0  0  0  0  0  0  0  0
    1.2375   -0.7145    0.0000 O   0  5  0  0  0  0  0  0  0  0  0  0
    0.0000    0.0000    0.0000 O   0  0  0  0  0  0  0  0  0  0  0  0
  1  2  1  0  0  0  0
  2  3  1  6  0  0  0
  2  4  2  0  0  0  0
M  END
> <DRUGBANK_ID>
DB02825

> <DRUG_GROUPS>
experimental

> <GENERIC_NAME>
Methylphosphonic Acid Ester Group

> <CHEMICAL_FORMULA>
CH4O2P

> <MOLECULAR_WEIGHT>
79.015

> <EXACT_MASS>
78.994890884

> <IUPAC_NAME>
methylphosphinate

> <IUPAC_TRADITIONAL_NAME>
methylphosphinate

> <INCHI_IDENTIFIER>
InChI=1S/CH5O2P/c1-4(2)3/h4H,1H3,(H,2,3)/p-1

> <INCHI_KEY>
InChIKey=BCDIWLCKOCHCIH-UHFFFAOYSA-M

> <SMILES>
CP([O-])=O

> <JCHEM_ACCEPTOR_COUNT>
2

> <JCHEM_DONOR_COUNT>
0

> <JCHEM_ACIDIC_PKA>
2.31

> <JCHEM_PHYSIOLOGICAL_CHARGE>
-1

> <ALOGPS_LOGP>
-1.3

> <JCHEM_LOGP>
-1.2

> <ALOGPS_LOGS>
0.61

> <JCHEM_POLARIZABILITY>
5.84

> <JCHEM_POLAR_SURFACE_AREA>
40.13

> <JCHEM_REFRACTIVITY>
14.83

> <JCHEM_ROTATABLE_BOND_COUNT>
0

> <ALOGPS_SOLUBILITY>
3.94e+02 g/l __ 

$$$$
