
  Mrv0541 02231216112D          

 10 10  0  0  0  0            999 V2000
    2.1434    1.2375    0.0000 O    0  0  0  0  0  0  0  0  0  0  0  0
    1.4289    0.8250    0.0000 C    0  0  0  0  0  0  0  0  0  0  0  0
    1.4289    0.0000    0.0000 C    0  0  0  0  0  0  0  0  0  0  0  0
    2.1434   -0.4125    0.0000 Br   0  0  0  0  0  0  0  0  0  0  0  0
    0.7145   -0.4125    0.0000 C    0  0  0  0  0  0  0  0  0  0  0  0
    0.0000    0.0000    0.0000 C    0  0  0  0  0  0  0  0  0  0  0  0
   -0.7145   -0.4125    0.0000 Br   0  0  0  0  0  0  0  0  0  0  0  0
    0.0000    0.8250    0.0000 C    0  0  0  0  0  0  0  0  0  0  0  0
    0.7145    1.2375    0.0000 C    0  0  0  0  0  0  0  0  0  0  0  0
    0.7145    2.0625    0.0000 Br   0  0  0  0  0  0  0  0  0  0  0  0
  1  2  1  0  0  0  0
  2  3  2  0  0  0  0
  3  4  1  0  0  0  0
  3  5  1  0  0  0  0
  5  6  2  0  0  0  0
  6  7  1  0  0  0  0
  6  8  1  0  0  0  0
  8  9  2  0  0  0  0
  2  9  1  0  0  0  0
  9 10  1  0  0  0  0
M  END
> <DRUGBANK_ID>
DB02417

> <DRUG_GROUPS>
experimental

> <GENERIC_NAME>
2,4,6-Tribromophenol

> <CHEMICAL_FORMULA>
C6H3Br3O

> <MOLECULAR_WEIGHT>
330.799

> <EXACT_MASS>
327.773402659

> <IUPAC_NAME>
2,4,6-tribromophenol

> <IUPAC_TRADITIONAL_NAME>
2,4,6-tribromophenol

> <INCHI_IDENTIFIER>
InChI=1S/C6H3Br3O/c7-3-1-4(8)6(10)5(9)2-3/h1-2,10H

> <INCHI_KEY>
InChIKey=BSWWXRFVMJHFBN-UHFFFAOYSA-N

> <SMILES>
OC1=C(Br)C=C(Br)C=C1Br

> <JCHEM_ACCEPTOR_COUNT>
1

> <JCHEM_DONOR_COUNT>
1

> <JCHEM_ACIDIC_PKA>
6.34

> <JCHEM_BASIC_PKA>
-7.7

> <JCHEM_PHYSIOLOGICAL_CHARGE>
-1

> <ALOGPS_LOGP>
4.2

> <JCHEM_LOGP>
3.98

> <ALOGPS_LOGS>
-3.8

> <JCHEM_POLARIZABILITY>
19.92

> <JCHEM_POLAR_SURFACE_AREA>
20.23

> <JCHEM_REFRACTIVITY>
50.91

> <JCHEM_ROTATABLE_BOND_COUNT>
0

> <ALOGPS_SOLUBILITY>
5.45e-02 g/l __ 

$$$$
