
  Mrv0541 02231216142D          

 41 43  0  0  1  0            999 V2000
   -1.8610   -7.4517    0.0000 C   0  0  0  0  0  0  0  0  0  0  0  0
   -2.6855   -7.4229    0.0000 C   0  0  0  0  0  0  0  0  0  0  0  0
   -3.1227   -8.1226    0.0000 O   0  0  0  0  0  0  0  0  0  0  0  0
   -3.0728   -6.6945    0.0000 N   0  0  0  0  0  0  0  0  0  0  0  0
   -2.6356   -5.9949    0.0000 C   0  0  1  0  0  0  0  0  0  0  0  0
   -1.8111   -6.0237    0.0000 C   0  0  2  0  0  0  0  0  0  0  0  0
   -1.4238   -6.7521    0.0000 O   0  0  0  0  0  0  0  0  0  0  0  0
   -1.3739   -5.3240    0.0000 C   0  0  0  0  0  0  0  0  0  0  0  0
   -1.7613   -4.5956    0.0000 C   0  0  2  0  0  0  0  0  0  0  0  0
   -2.5858   -4.5668    0.0000 O   0  0  0  0  0  0  0  0  0  0  0  0
   -3.0229   -5.2664    0.0000 C   0  0  2  0  0  0  0  0  0  0  0  0
   -3.8474   -5.2377    0.0000 C   0  0  1  0  0  0  0  0  0  0  0  0
   -4.2846   -5.9373    0.0000 O   0  0  0  0  0  0  0  0  0  0  0  0
   -4.2348   -4.5092    0.0000 C   0  0  2  0  0  0  0  0  0  0  0  0
   -3.7976   -3.8096    0.0000 O   0  0  0  0  0  0  0  0  0  0  0  0
   -5.0592   -4.4804    0.0000 C   0  0  0  0  0  0  0  0  0  0  0  0
   -5.4964   -5.1801    0.0000 O   0  0  0  0  0  0  0  0  0  0  0  0
   -1.0468   -4.1831    0.0000 O   0  0  0  0  0  0  0  0  0  0  0  0
   -0.3323   -4.5956    0.0000 P   0  0  2  0  0  0  0  0  0  0  0  0
   -0.7448   -5.3101    0.0000 O   0  0  0  0  0  0  0  0  0  0  0  0
    0.0802   -3.8811    0.0000 O   0  0  0  0  0  0  0  0  0  0  0  0
    0.3822   -5.0081    0.0000 O   0  0  0  0  0  0  0  0  0  0  0  0
    1.0966   -4.5956    0.0000 C   0  0  0  0  0  0  0  0  0  0  0  0
    1.8111   -5.0081    0.0000 C   0  0  2  0  0  0  0  0  0  0  0  0
    2.5648   -4.6725    0.0000 O   0  0  0  0  0  0  0  0  0  0  0  0
    3.1168   -5.2856    0.0000 C   0  0  2  0  0  0  0  0  0  0  0  0
    2.7043   -6.0001    0.0000 C   0  0  2  0  0  0  0  0  0  0  0  0
    3.0399   -6.7538    0.0000 O   0  0  0  0  0  0  0  0  0  0  0  0
    1.8973   -5.8286    0.0000 C   0  0  1  0  0  0  0  0  0  0  0  0
    1.2842   -6.3806    0.0000 O   0  0  0  0  0  0  0  0  0  0  0  0
    3.9373   -5.1994    0.0000 N   0  0  0  0  0  0  0  0  0  0  0  0
    4.2728   -4.4457    0.0000 C   0  0  0  0  0  0  0  0  0  0  0  0
    5.0933   -4.3595    0.0000 C   0  0  0  0  0  0  0  0  0  0  0  0
    5.5782   -5.0269    0.0000 C   0  0  0  0  0  0  0  0  0  0  0  0
    6.3987   -4.9407    0.0000 N   0  0  0  0  0  0  0  0  0  0  0  0
    5.2427   -5.7806    0.0000 N   0  0  0  0  0  0  0  0  0  0  0  0
    4.4222   -5.8668    0.0000 C   0  0  0  0  0  0  0  0  0  0  0  0
    4.0866   -6.6205    0.0000 O   0  0  0  0  0  0  0  0  0  0  0  0
   -1.7037   -3.7726    0.0000 C   0  0  0  0  0  0  0  0  0  0  0  0
   -2.3877   -3.3113    0.0000 O   0  0  0  0  0  0  0  0  0  0  0  0
   -0.9622   -3.4110    0.0000 O   0  0  0  0  0  0  0  0  0  0  0  0
  1  2  1  0  0  0  0
  2  3  2  0  0  0  0
  2  4  1  0  0  0  0
  5  4  1  6  0  0  0
  5  6  1  0  0  0  0
  6  7  1  1  0  0  0
  6  8  1  0  0  0  0
  8  9  1  0  0  0  0
  9 10  1  0  0  0  0
 10 11  1  0  0  0  0
  5 11  1  0  0  0  0
 11 12  1  1  0  0  0
 12 13  1  1  0  0  0
 12 14  1  0  0  0  0
 14 15  1  1  0  0  0
 14 16  1  0  0  0  0
 16 17  1  0  0  0  0
  9 18  1  6  0  0  0
 19 18  1  6  0  0  0
 19 20  1  1  0  0  0
 19 21  2  0  0  0  0
 19 22  1  0  0  0  0
 22 23  1  0  0  0  0
 24 23  1  6  0  0  0
 24 25  1  0  0  0  0
 25 26  1  0  0  0  0
 26 27  1  0  0  0  0
 27 28  1  6  0  0  0
 27 29  1  0  0  0  0
 24 29  1  0  0  0  0
 29 30  1  1  0  0  0
 26 31  1  1  0  0  0
 31 32  1  0  0  0  0
 32 33  2  0  0  0  0
 33 34  1  0  0  0  0
 34 35  1  0  0  0  0
 34 36  2  0  0  0  0
 36 37  1  0  0  0  0
 31 37  1  0  0  0  0
 37 38  2  0  0  0  0
  9 39  1  1  0  0  0
 39 40  1  0  0  0  0
 39 41  2  0  0  0  0
M  END
> <DRUGBANK_ID>
DB02485

> <DRUG_GROUPS>
experimental

> <GENERIC_NAME>
Cytidine-5'-Monophosphate-5-N-Acetylneuraminic Acid

> <CHEMICAL_FORMULA>
C20H31N4O16P

> <MOLECULAR_WEIGHT>
614.4511

> <EXACT_MASS>
614.147267476

> <IUPAC_NAME>
(2S,4R,5S,6S)-2-[({[(2S,3R,4R,5R)-5-(4-amino-2-oxo-1,2-dihydropyrimidin-1-yl)-3,4-dihydroxyoxolan-2-yl]methoxy}(hydroxy)phosphoryl)oxy]-5-acetamido-4-hydroxy-6-[(1S,2R)-1,2,3-trihydroxypropyl]oxane-2-carboxylic acid

> <IUPAC_TRADITIONAL_NAME>
(2S,4R,5S,6S)-2-({[(2S,3R,4R,5R)-5-(4-amino-2-oxopyrimidin-1-yl)-3,4-dihydroxyoxolan-2-yl]methoxy(hydroxy)phosphoryl}oxy)-5-acetamido-4-hydroxy-6-[(1S,2R)-1,2,3-trihydroxypropyl]oxane-2-carboxylic acid

> <INCHI_IDENTIFIER>
InChI=1S/C20H31N4O16P/c1-7(26)22-12-8(27)4-20(18(32)33,39-16(12)13(29)9(28)5-25)40-41(35,36)37-6-10-14(30)15(31)17(38-10)24-3-2-11(21)23-19(24)34/h2-3,8-10,12-17,25,27-31H,4-6H2,1H3,(H,22,26)(H,32,33)(H,35,36)(H2,21,23,34)/t8-,9-,10+,12+,13+,14+,15-,16+,17-,20+/m1/s1

> <INCHI_KEY>
InChIKey=TXCIAUNLDRJGJZ-XPVTVWDUSA-N

> <SMILES>
CC(=O)N[C@H]1[C@H](O)C[C@@](O[P@](O)(=O)OC[C@@H]2O[C@H]([C@H](O)[C@H]2O)N2C=CC(N)=NC2=O)(O[C@@H]1[C@@H](O)[C@H](O)CO)C(O)=O

> <JCHEM_ACCEPTOR_COUNT>
16

> <JCHEM_DONOR_COUNT>
10

> <JCHEM_ACIDIC_PKA>
1.48

> <JCHEM_BASIC_PKA>
-0.77

> <JCHEM_PHYSIOLOGICAL_CHARGE>
-2

> <ALOGPS_LOGP>
-2.7

> <JCHEM_LOGP>
-5.9

> <ALOGPS_LOGS>
-1.2

> <JCHEM_POLARIZABILITY>
54.27

> <JCHEM_POLAR_SURFACE_AREA>
320.69

> <JCHEM_REFRACTIVITY>
125.42

> <JCHEM_ROTATABLE_BOND_COUNT>
11

> <ALOGPS_SOLUBILITY>
3.63e+01 g/l __ 

$$$$
