BDB
  Mrv0541 02231216202D          

 18 19  0  0  0  0            999 V2000
    0.0137    2.8924    0.0000 B   0  0  0  0  0  0  0  0  0  0  0  0
   -0.7008    3.3049    0.0000 O   0  0  0  0  0  0  0  0  0  0  0  0
    0.7282    3.3049    0.0000 O   0  0  0  0  0  0  0  0  0  0  0  0
    0.0137    2.0674    0.0000 C   0  0  0  0  0  0  0  0  0  0  0  0
    0.7282    1.6549    0.0000 C   0  0  0  0  0  0  0  0  0  0  0  0
    0.7282    0.8299    0.0000 C   0  0  0  0  0  0  0  0  0  0  0  0
    0.0137    0.4174    0.0000 C   0  0  0  0  0  0  0  0  0  0  0  0
   -0.7008    0.8299    0.0000 C   0  0  0  0  0  0  0  0  0  0  0  0
   -0.7008    1.6549    0.0000 C   0  0  0  0  0  0  0  0  0  0  0  0
    0.0137   -0.4076    0.0000 C   0  0  0  0  0  0  0  0  0  0  0  0
    0.7282   -0.8201    0.0000 C   0  0  0  0  0  0  0  0  0  0  0  0
    0.7282   -1.6451    0.0000 C   0  0  0  0  0  0  0  0  0  0  0  0
    0.0137   -2.0576    0.0000 C   0  0  0  0  0  0  0  0  0  0  0  0
   -0.7008   -1.6451    0.0000 C   0  0  0  0  0  0  0  0  0  0  0  0
   -0.7008   -0.8201    0.0000 C   0  0  0  0  0  0  0  0  0  0  0  0
    0.0137   -2.8826    0.0000 B   0  0  0  0  0  0  0  0  0  0  0  0
    0.7282   -3.2951    0.0000 O   0  0  0  0  0  0  0  0  0  0  0  0
   -0.7008   -3.2951    0.0000 O   0  0  0  0  0  0  0  0  0  0  0  0
  1  2  1  0  0  0  0
  1  3  1  0  0  0  0
  1  4  1  0  0  0  0
  4  5  2  0  0  0  0
  4  9  1  0  0  0  0
  5  6  1  0  0  0  0
  6  7  2  0  0  0  0
  7  8  1  0  0  0  0
  7 10  1  0  0  0  0
  8  9  2  0  0  0  0
 10 11  2  0  0  0  0
 10 15  1  0  0  0  0
 11 12  1  0  0  0  0
 12 13  2  0  0  0  0
 13 14  1  0  0  0  0
 13 16  1  0  0  0  0
 14 15  2  0  0  0  0
 16 17  1  0  0  0  0
 16 18  1  0  0  0  0
M  END
> <DRUGBANK_ID>
DB02627

> <DRUG_GROUPS>
experimental

> <GENERIC_NAME>
4,4'-Biphenyldiboronic Acid

> <CHEMICAL_FORMULA>
C12H12B2O4

> <MOLECULAR_WEIGHT>
241.843

> <EXACT_MASS>
242.092169804

> <IUPAC_NAME>
{4-[4-(dihydroxyboranyl)phenyl]phenyl}boronic acid

> <IUPAC_TRADITIONAL_NAME>
4-[4-(dihydroxyboranyl)phenyl]phenylboronic acid

> <INCHI_IDENTIFIER>
InChI=1S/C12H12B2O4/c15-13(16)11-5-1-9(2-6-11)10-3-7-12(8-4-10)14(17)18/h1-8,15-18H

> <INCHI_KEY>
InChIKey=SLHKDOGTVUCXKX-UHFFFAOYSA-N

> <SMILES>
OB(O)C1=CC=C(C=C1)C1=CC=C(C=C1)B(O)O

> <JCHEM_ACCEPTOR_COUNT>
4

> <JCHEM_DONOR_COUNT>
4

> <JCHEM_ACIDIC_PKA>
8.44

> <JCHEM_BASIC_PKA>
-5.4

> <JCHEM_PHYSIOLOGICAL_CHARGE>
0

> <ALOGPS_LOGP>
1.6

> <JCHEM_LOGP>
2.92

> <ALOGPS_LOGS>
-3.8

> <JCHEM_POLARIZABILITY>
26.86

> <JCHEM_POLAR_SURFACE_AREA>
80.92

> <JCHEM_REFRACTIVITY>
60.29

> <JCHEM_ROTATABLE_BOND_COUNT>
3

> <ALOGPS_SOLUBILITY>
4.18e-02 g/l __ 

$$$$
