
  Mrv0541 02231216212D          

 70 83  0  0  0  0            999 V2000
   -1.7564   -1.9110    0.0000 C    0  0  0  0  0  0  0  0  0  0  0  0
   -1.1434   -1.3590    0.0000 C    0  0  0  0  0  0  0  0  0  0  0  0
   -0.3587   -1.6139    0.0000 C    0  0  0  0  0  0  0  0  0  0  0  0
    0.2544   -1.0619    0.0000 C    0  0  0  0  0  0  0  0  0  0  0  0
    0.0828   -0.2549    0.0000 N    0  0  0  0  0  0  0  0  0  0  0  0
   -0.7018    0.0000    0.0000 C    0  0  0  0  0  0  0  0  0  0  0  0
   -1.3149   -0.5520    0.0000 C    0  0  0  0  0  0  0  0  0  0  0  0
   -0.7018    0.8250    0.0000 C    0  0  0  0  0  0  0  0  0  0  0  0
   -1.3149    1.3770    0.0000 C    0  0  0  0  0  0  0  0  0  0  0  0
   -1.1434    2.1840    0.0000 C    0  0  0  0  0  0  0  0  0  0  0  0
   -1.7564    2.7360    0.0000 C    0  0  0  0  0  0  0  0  0  0  0  0
   -1.5849    3.5430    0.0000 C    0  0  0  0  0  0  0  0  0  0  0  0
   -2.1980    4.0950    0.0000 C    0  0  0  0  0  0  0  0  0  0  0  0
   -2.9826    3.8401    0.0000 F    0  0  0  0  0  0  0  0  0  0  0  0
   -2.0265    4.9020    0.0000 C    0  0  0  0  0  0  0  0  0  0  0  0
   -2.6396    5.4540    0.0000 F    0  0  0  0  0  0  0  0  0  0  0  0
   -1.2419    5.1570    0.0000 C    0  0  0  0  0  0  0  0  0  0  0  0
   -0.6288    4.6049    0.0000 C    0  0  0  0  0  0  0  0  0  0  0  0
    0.1558    4.8599    0.0000 F    0  0  0  0  0  0  0  0  0  0  0  0
   -0.8003    3.7979    0.0000 C    0  0  0  0  0  0  0  0  0  0  0  0
   -0.1872    3.2459    0.0000 F    0  0  0  0  0  0  0  0  0  0  0  0
   -1.0703    5.9639    0.0000 C    0  0  0  0  0  0  0  0  0  0  0  0
   -1.6834    6.5160    0.0000 C    0  0  0  0  0  0  0  0  0  0  0  0
   -2.4681    6.2610    0.0000 F    0  0  0  0  0  0  0  0  0  0  0  0
   -1.5119    7.3229    0.0000 C    0  0  0  0  0  0  0  0  0  0  0  0
   -2.1250    7.8750    0.0000 F    0  0  0  0  0  0  0  0  0  0  0  0
   -0.7273    7.5779    0.0000 C    0  0  0  0  0  0  0  0  0  0  0  0
   -0.5558    8.3848    0.0000 N    0  0  0  0  0  0  0  0  0  0  0  0
    0.2289    8.6398    0.0000 C    0  0  1  0  0  0  0  0  0  0  0  0
    1.0536    8.6582    0.0000 C    0  0  2  0  0  0  0  0  0  0  0  0
    1.3772    9.3319    0.0000 C    0  0  0  0  0  0  0  0  0  0  0  0
    2.1245    9.8497    0.0000 C    0  0  1  0  0  0  0  0  0  0  0  0
    2.6258    9.1943    0.0000 C    0  0  0  0  0  0  0  0  0  0  0  0
    2.3022    8.5206    0.0000 C    0  0  1  0  0  0  0  0  0  0  0  0
    1.5548    8.0029    0.0000 C    0  0  0  0  0  0  0  0  0  0  0  0
    1.4773    8.5023    0.0000 C    0  0  0  0  0  0  0  0  0  0  0  0
    0.9761    9.1576    0.0000 C    0  0  2  0  0  0  0  0  0  0  0  0
    1.2997    9.8313    0.0000 C    0  0  0  0  0  0  0  0  0  0  0  0
   -0.1142    7.0258    0.0000 C    0  0  0  0  0  0  0  0  0  0  0  0
    0.6704    7.2808    0.0000 F    0  0  0  0  0  0  0  0  0  0  0  0
   -0.2857    6.2189    0.0000 C    0  0  0  0  0  0  0  0  0  0  0  0
    0.3274    5.6668    0.0000 F    0  0  0  0  0  0  0  0  0  0  0  0
   -0.3587    2.4389    0.0000 C    0  0  0  0  0  0  0  0  0  0  0  0
    0.2544    1.8869    0.0000 C    0  0  0  0  0  0  0  0  0  0  0  0
    0.0828    1.0799    0.0000 N    0  0  0  0  0  0  0  0  0  0  0  0
    1.2695    0.4125    0.0000 Ru   0  2  0  0  0  0  0  0  0  0  0  0
    2.4409   -0.2815    0.0000 N    0  0  1  0  0  0  0  0  0  0  0  0
    3.0540    0.2705    0.0000 C    0  0  0  0  0  0  0  0  0  0  0  0
    3.8386    0.0156    0.0000 C    0  0  0  0  0  0  0  0  0  0  0  0
    4.0102   -0.7914    0.0000 C    0  0  0  0  0  0  0  0  0  0  0  0
    3.3971   -1.3434    0.0000 C    0  0  0  0  0  0  0  0  0  0  0  0
    2.6124   -1.0885    0.0000 C    0  0  0  0  0  0  0  0  0  0  0  0
    1.8980   -1.5010    0.0000 C    0  0  0  0  0  0  0  0  0  0  0  0
    1.7264   -2.3079    0.0000 C    0  0  0  0  0  0  0  0  0  0  0  0
    0.9418   -2.5629    0.0000 C    0  0  0  0  0  0  0  0  0  0  0  0
    0.3287   -2.0109    0.0000 C    0  0  0  0  0  0  0  0  0  0  0  0
    0.5003   -1.2039    0.0000 C    0  0  0  0  0  0  0  0  0  0  0  0
    1.2849   -0.9489    0.0000 N    0  0  1  0  0  0  0  0  0  0  0  0
    0.3287    2.8359    0.0000 C    0  0  0  0  0  0  0  0  0  0  0  0
    0.5003    2.0289    0.0000 C    0  0  0  0  0  0  0  0  0  0  0  0
    1.2849    1.7739    0.0000 N    0  0  1  0  0  0  0  0  0  0  0  0
    1.8980    2.3260    0.0000 C    0  0  0  0  0  0  0  0  0  0  0  0
    1.7264    3.1329    0.0000 C    0  0  0  0  0  0  0  0  0  0  0  0
    0.9418    3.3879    0.0000 C    0  0  0  0  0  0  0  0  0  0  0  0
    2.6124    1.9135    0.0000 C    0  0  0  0  0  0  0  0  0  0  0  0
    3.3971    2.1684    0.0000 C    0  0  0  0  0  0  0  0  0  0  0  0
    4.0102    1.6164    0.0000 C    0  0  0  0  0  0  0  0  0  0  0  0
    3.8386    0.8094    0.0000 C    0  0  0  0  0  0  0  0  0  0  0  0
    3.0540    0.5545    0.0000 C    0  0  0  0  0  0  0  0  0  0  0  0
    2.4409    1.1065    0.0000 N    0  0  1  0  0  0  0  0  0  0  0  0
  1  2  1  0  0  0  0
  2  3  4  0  0  0  0
  3  4  4  0  0  0  0
  4  5  4  0  0  0  0
  5  6  4  0  0  0  0
  6  7  4  0  0  0  0
  2  7  4  0  0  0  0
  6  8  1  0  0  0  0
  8  9  4  0  0  0  0
  9 10  4  0  0  0  0
 10 11  1  0  0  0  0
 11 12  1  0  0  0  0
 12 13  2  0  0  0  0
 13 14  1  0  0  0  0
 13 15  1  0  0  0  0
 15 16  1  0  0  0  0
 15 17  2  0  0  0  0
 17 18  1  0  0  0  0
 18 19  1  0  0  0  0
 18 20  2  0  0  0  0
 12 20  1  0  0  0  0
 20 21  1  0  0  0  0
 17 22  1  0  0  0  0
 22 23  2  0  0  0  0
 23 24  1  0  0  0  0
 23 25  1  0  0  0  0
 25 26  1  0  0  0  0
 25 27  2  0  0  0  0
 27 28  1  0  0  0  0
 29 28  1  6  0  0  0
 29 30  1  0  0  0  0
 30 31  1  6  0  0  0
 32 31  1  1  0  0  0
 32 33  1  0  0  0  0
 34 33  1  1  0  0  0
 34 35  1  0  0  0  0
 30 35  1  0  0  0  0
 34 36  1  0  0  0  0
 37 36  1  1  0  0  0
 29 37  1  0  0  0  0
 37 38  1  0  0  0  0
 32 38  1  0  0  0  0
 27 39  1  0  0  0  0
 39 40  1  0  0  0  0
 39 41  2  0  0  0  0
 22 41  1  0  0  0  0
 41 42  1  0  0  0  0
 10 43  4  0  0  0  0
 43 44  4  0  0  0  0
 44 45  4  0  0  0  0
  8 45  4  0  0  0  0
 45 46  1  0  0  0  0
  5 46  1  0  0  0  0
 47 46  1  1  0  0  0
 47 48  1  0  0  0  0
 48 49  2  0  0  0  0
 49 50  1  0  0  0  0
 50 51  2  0  0  0  0
 51 52  1  0  0  0  0
 47 52  1  0  0  0  0
 52 53  2  0  0  0  0
 53 54  1  0  0  0  0
 54 55  2  0  0  0  0
 55 56  1  0  0  0  0
 56 57  2  0  0  0  0
 57 58  1  0  0  0  0
 58 46  1  1  0  0  0
 53 58  1  0  0  0  0
 59 60  2  0  0  0  0
 60 61  1  0  0  0  0
 61 46  1  1  0  0  0
 61 62  1  0  0  0  0
 62 63  1  0  0  0  0
 63 64  2  0  0  0  0
 59 64  1  0  0  0  0
 62 65  2  0  0  0  0
 65 66  1  0  0  0  0
 66 67  2  0  0  0  0
 67 68  1  0  0  0  0
 68 69  2  0  0  0  0
 69 70  1  0  0  0  0
 70 46  1  1  0  0  0
 65 70  1  0  0  0  0
M  END
> <DRUGBANK_ID>
DB02653

> <DRUG_GROUPS>
experimental

> <GENERIC_NAME>
Delta-Bis(2,2'-Bipyridine)-(5-Methyl-2-2'-Bipyridine)-C2-Adamantane Ruthenium (Ii)

> <CHEMICAL_FORMULA>
C54H43F8N7Ru

> <MOLECULAR_WEIGHT>
1043.02

> <EXACT_MASS>
1043.249569554

> <SMILES>
Cc1ccn2c(c1)-c1cc(CC3=C(F)C(F)=C(C(F)=C3F)C3=C(F)C(F)=C(N[C@H]4[C@H]5C[C@@H]6C[C@@H](C[C@H]4C6)C5)C(F)=C3F)ccn1[Ru++]2123N4C=CC=CC4=C4C=CC=CN14.C1=CN2C(C=C1)=C1C=CC=CN31

> <JCHEM_ACCEPTOR_COUNT>
5

> <JCHEM_DONOR_COUNT>
1

> <JCHEM_ACIDIC_PKA>
11.42

> <JCHEM_BASIC_PKA>
6.55

> <JCHEM_PHYSIOLOGICAL_CHARGE>
2

> <JCHEM_LOGP>
12.59

> <JCHEM_POLARIZABILITY>
94.58

> <JCHEM_POLAR_SURFACE_AREA>
34.85

> <JCHEM_REFRACTIVITY>
265.13

> <JCHEM_ROTATABLE_BOND_COUNT>
4 __ 

$$$$
