25202532
  Mrv0541 02231215592D          

 27 30  0  0  1  0            999 V2000
    7.2245    1.8173    0.0000 Mo   0  0  0  0  0  0  0  0  0  0  0  0
    6.4046    1.7255    0.0000 S    0  0  0  0  0  0  0  0  0  0  0  0
    7.5665    1.0665    0.0000 S    0  0  0  0  0  0  0  0  0  0  0  0
    8.3330   -1.9205    0.0000 P    0  0  0  0  0  0  0  0  0  0  0  0
    6.2372   -0.7312    0.0000 O    0  0  0  0  0  0  0  0  0  0  0  0
    7.6445   -1.5195    0.0000 O    0  0  0  0  0  0  0  0  0  0  0  0
    7.9498    2.1469    0.0000 O    0  5  0  0  0  0  0  0  0  0  0  0
    7.1352    2.6090    0.0000 O    0  0  0  0  0  0  0  0  0  0  0  0
    3.4418    1.7144    0.0000 O    0  0  0  0  0  0  0  0  0  0  0  0
    9.0215   -2.3216    0.0000 O    0  5  0  0  0  0  0  0  0  0  0  0
    7.9320   -2.6090    0.0000 O    0  5  0  0  0  0  0  0  0  0  0  0
    8.7341   -1.2321    0.0000 O    0  0  0  0  0  0  0  0  0  0  0  0
    4.8349    0.8900    0.0000 N    0  0  0  0  0  0  0  0  0  0  0  0
    4.8349   -0.7036    0.0000 N    0  0  0  0  0  0  0  0  0  0  0  0
    3.4327   -0.7312    0.0000 N    0  0  0  0  0  0  0  0  0  0  0  0
    2.7107    0.5082    0.0000 N    0  0  0  0  0  0  0  0  0  0  0  0
    2.0222   -0.7228    0.0000 N    0  0  0  0  0  0  0  0  0  0  0  0
    5.5250    0.4916    0.0000 C    0  0  0  0  0  0  0  0  0  0  0  0
    5.5250   -0.3052    0.0000 C    0  0  0  0  0  0  0  0  0  0  0  0
    6.2372    0.9176    0.0000 C    0  0  0  0  0  0  0  0  0  0  0  0
    6.9591   -0.3217    0.0000 C    0  0  0  0  0  0  0  0  0  0  0  0
    6.9591    0.5082    0.0000 C    0  0  0  0  0  0  0  0  0  0  0  0
    4.1449    0.4916    0.0000 C    0  0  0  0  0  0  0  0  0  0  0  0
    4.1449   -0.3052    0.0000 C    0  0  0  0  0  0  0  0  0  0  0  0
    7.6476   -0.7228    0.0000 C    0  0  0  0  0  0  0  0  0  0  0  0
    3.4327    0.9176    0.0000 C    0  0  0  0  0  0  0  0  0  0  0  0
    2.7107   -0.3217    0.0000 C    0  0  0  0  0  0  0  0  0  0  0  0
  1  7  1  0  0  0  0
  1  8  2  0  0  0  0
  2 20  1  0  0  0  0
  3 22  1  0  0  0  0
  4  6  1  0  0  0  0
  4 10  1  0  0  0  0
  4 11  1  0  0  0  0
  4 12  2  0  0  0  0
  5 19  1  0  0  0  0
  5 21  1  0  0  0  0
  6 25  1  0  0  0  0
  9 26  2  0  0  0  0
 13 18  1  0  0  0  0
 13 23  1  0  0  0  0
 14 19  1  0  0  0  0
 14 24  1  0  0  0  0
 15 24  1  0  0  0  0
 15 27  1  0  0  0  0
 16 26  1  0  0  0  0
 16 27  2  0  0  0  0
 17 27  1  0  0  0  0
 18 19  1  0  0  0  0
 18 20  1  0  0  0  0
 20 22  2  0  0  0  0
 21 22  1  0  0  0  0
 21 25  1  0  0  0  0
 23 24  2  0  0  0  0
 23 26  1  0  0  0  0
  2  1  1  0  0  0  0
  3  1  1  0  0  0  0
M  END
> <DRUGBANK_ID>
DB02137

> <DRUG_GROUPS>
experimental

> <GENERIC_NAME>
Molybdenum Cofactor

> <SYNONYMS>


> <CHEMICAL_FORMULA>
C10H10MoN5O8PS2

> <MOLECULAR_WEIGHT>
519.26

> <EXACT_MASS>
520.876248059

> <IUPAC_NAME>
5-amino-7,13-dioxo-16-[(phosphonatooxy)methyl]-17-oxa-12,14-dithia-2,4,6,9-tetraaza-13-molybdatetracyclo[8.7.0.0^{3,8}.0^{11,15}]heptadeca-3(8),5,11(15)-trien-13-olate

> <IUPAC_TRADITIONAL_NAME>
5-amino-7,13-dioxo-16-[(phosphonatooxy)methyl]-17-oxa-12,14-dithia-2,4,6,9-tetraaza-13-molybdatetracyclo[8.7.0.0^{3,8}.0^{11,15}]heptadeca-3(8),5,11(15)-trien-13-olate

> <INCHI_IDENTIFIER>
InChI=1S/C10H14N5O6PS2.Mo.2O/c11-10-14-7-4(8(16)15-10)12-3-6(24)5(23)2(21-9(3)13-7)1-20-22(17,18)19;;;/h2-3,9,12,23-24H,1H2,(H2,17,18,19)(H4,11,13,14,15,16);;;/q;+2;;-1/p-4

> <INCHI_KEY>
InChIKey=UCICVTHYJCEWTJ-UHFFFAOYSA-J

> <SMILES>
NC1=NC(=O)C2=C(NC3OC(COP([O-])([O-])=O)C4=C(S[Mo]([O-])(=O)S4)C3N2)N1

> <JCHEM_ACCEPTOR_COUNT>
12

> <JCHEM_DONOR_COUNT>
4

> <JCHEM_ACIDIC_PKA>
1.19

> <JCHEM_BASIC_PKA>
3.13

> <JCHEM_PHYSIOLOGICAL_CHARGE>
-2

> <ALOGPS_LOGP>
-0.66

> <JCHEM_LOGP>
-3.1

> <ALOGPS_LOGS>
-1.6

> <JCHEM_POLARIZABILITY>
38.11

> <JCHEM_POLAR_SURFACE_AREA>
213.32

> <JCHEM_REFRACTIVITY>
97.61

> <JCHEM_ROTATABLE_BOND_COUNT>
3

> <ALOGPS_SOLUBILITY>
1.61e+01 g/l __ 

$$$$
