
  Mrv0541 02231216172D          

 18 20  0  0  0  0            999 V2000
    4.0668    2.3479    0.0000 N   0  0  0  0  0  0  0  0  0  0  0  0
    3.3523    1.9354    0.0000 C   0  0  0  0  0  0  0  0  0  0  0  0
    3.3523    1.1104    0.0000 N   0  0  0  0  0  0  0  0  0  0  0  0
    2.6378    0.6979    0.0000 C   0  0  0  0  0  0  0  0  0  0  0  0
    2.6378   -0.1271    0.0000 O   0  0  0  0  0  0  0  0  0  0  0  0
    1.9233    1.1104    0.0000 C   0  0  0  0  0  0  0  0  0  0  0  0
    1.9233    1.9354    0.0000 C   0  0  0  0  0  0  0  0  0  0  0  0
    2.6378    2.3479    0.0000 N   0  0  0  0  0  0  0  0  0  0  0  0
    1.1387    2.1904    0.0000 C   0  0  0  0  0  0  0  0  0  0  0  0
    0.8838    2.9750    0.0000 C   0  0  0  0  0  0  0  0  0  0  0  0
    1.4358    3.5881    0.0000 C   0  0  0  0  0  0  0  0  0  0  0  0
    1.1809    4.3727    0.0000 C   0  0  0  0  0  0  0  0  0  0  0  0
    1.7329    4.9858    0.0000 N   0  0  0  0  0  0  0  0  0  0  0  0
    2.5399    4.8143    0.0000 C   0  0  0  0  0  0  0  0  0  0  0  0
    2.7948    4.0297    0.0000 C   0  0  0  0  0  0  0  0  0  0  0  0
    2.2428    3.4166    0.0000 C   0  0  0  0  0  0  0  0  0  0  0  0
    0.6538    1.5229    0.0000 C   0  0  0  0  0  0  0  0  0  0  0  0
    1.1387    0.8555    0.0000 N   0  0  0  0  0  0  0  0  0  0  0  0
  1  2  1  0  0  0  0
  2  3  2  0  0  0  0
  3  4  1  0  0  0  0
  4  5  2  0  0  0  0
  4  6  1  0  0  0  0
  6  7  2  0  0  0  0
  7  8  1  0  0  0  0
  2  8  1  0  0  0  0
  7  9  1  0  0  0  0
  9 10  1  0  0  0  0
 10 11  1  0  0  0  0
 11 12  2  0  0  0  0
 12 13  1  0  0  0  0
 13 14  2  0  0  0  0
 14 15  1  0  0  0  0
 15 16  2  0  0  0  0
 11 16  1  0  0  0  0
  9 17  2  0  0  0  0
 17 18  1  0  0  0  0
  6 18  1  0  0  0  0
M  END
> <DRUGBANK_ID>
DB02568

> <DRUG_GROUPS>
experimental

> <GENERIC_NAME>
Peldesine

> <SYNONYMS>


> <BRANDS>


> <CHEMICAL_FORMULA>
C12H11N5O

> <MOLECULAR_WEIGHT>
241.2486

> <EXACT_MASS>
241.096359999

> <IUPAC_NAME>
2-amino-7-(pyridin-3-ylmethyl)-1H,4H,5H-pyrrolo[3,2-d]pyrimidin-4-one

> <IUPAC_TRADITIONAL_NAME>
peldesine

> <INCHI_IDENTIFIER>
InChI=1S/C12H11N5O/c13-12-16-9-8(4-7-2-1-3-14-5-7)6-15-10(9)11(18)17-12/h1-3,5-6,15H,4H2,(H3,13,16,17,18)

> <INCHI_KEY>
InChIKey=DOHVAKFYAHLCJP-UHFFFAOYSA-N

> <SMILES>
NC1=NC(=O)C2=C(N1)C(CC1=CN=CC=C1)=CN2

> <JCHEM_ACCEPTOR_COUNT>
5

> <JCHEM_DONOR_COUNT>
3

> <JCHEM_ACIDIC_PKA>
10.49

> <JCHEM_BASIC_PKA>
5.39

> <JCHEM_PHYSIOLOGICAL_CHARGE>
0

> <ALOGPS_LOGP>
0.54

> <JCHEM_LOGP>
0.89

> <ALOGPS_LOGS>
-3.3

> <JCHEM_POLARIZABILITY>
23.91

> <JCHEM_POLAR_SURFACE_AREA>
96.16

> <JCHEM_REFRACTIVITY>
67.97

> <JCHEM_ROTATABLE_BOND_COUNT>
2

> <ALOGPS_SOLUBILITY>
1.21e-01 g/l __ 

$$$$
