ST3
  Mrv0541 02231216052D          

 14 14  0  0  0  0            999 V2000
    1.7530    0.8944    0.0000 C   0  0  0  0  0  0  0  0  0  0  0  0
    1.7530    1.7194    0.0000 O   0  0  0  0  0  0  0  0  0  0  0  0
    2.4674    0.4819    0.0000 O   0  0  0  0  0  0  0  0  0  0  0  0
    1.0385    0.4819    0.0000 C   0  0  0  0  0  0  0  0  0  0  0  0
    1.0385   -0.3431    0.0000 C   0  0  0  0  0  0  0  0  0  0  0  0
    0.3240   -0.7556    0.0000 C   0  0  0  0  0  0  0  0  0  0  0  0
    0.3240   -1.5806    0.0000 N   0  0  0  0  0  0  0  0  0  0  0  0
   -0.3905   -0.3431    0.0000 C   0  0  0  0  0  0  0  0  0  0  0  0
   -1.1049   -0.7556    0.0000 N   0  0  0  0  0  0  0  0  0  0  0  0
   -1.8194   -0.3431    0.0000 C   0  0  0  0  0  0  0  0  0  0  0  0
   -2.5339   -0.7556    0.0000 O   0  0  0  0  0  0  0  0  0  0  0  0
   -1.8194    0.4819    0.0000 C   0  0  0  0  0  0  0  0  0  0  0  0
   -0.3905    0.4819    0.0000 C   0  0  0  0  0  0  0  0  0  0  0  0
    0.3240    0.8944    0.0000 C   0  0  0  0  0  0  0  0  0  0  0  0
  1  2  2  0  0  0  0
  1  3  1  0  0  0  0
  1  4  1  0  0  0  0
  4  5  2  0  0  0  0
  4 14  1  0  0  0  0
  5  6  1  0  0  0  0
  6  7  1  0  0  0  0
  6  8  2  0  0  0  0
  8  9  1  0  0  0  0
  8 13  1  0  0  0  0
  9 10  1  0  0  0  0
 10 11  2  0  0  0  0
 10 12  1  0  0  0  0
 13 14  2  0  0  0  0
M  END
> <DRUGBANK_ID>
DB02268

> <DRUG_GROUPS>
experimental

> <GENERIC_NAME>
4-(Acetylamino)-3-Amino Benzoic Acid

> <CHEMICAL_FORMULA>
C9H10N2O3

> <MOLECULAR_WEIGHT>
194.1873

> <EXACT_MASS>
194.069142196

> <IUPAC_NAME>
3-amino-4-acetamidobenzoic acid

> <IUPAC_TRADITIONAL_NAME>
3-amino-4-acetamidobenzoic acid

> <INCHI_IDENTIFIER>
InChI=1S/C9H10N2O3/c1-5(12)11-8-3-2-6(9(13)14)4-7(8)10/h2-4H,10H2,1H3,(H,11,12)(H,13,14)

> <INCHI_KEY>
InChIKey=MJMLUICFHWSBQZ-UHFFFAOYSA-N

> <SMILES>
CC(=O)NC1=C(N)C=C(C=C1)C(O)=O

> <JCHEM_ACCEPTOR_COUNT>
4

> <JCHEM_DONOR_COUNT>
3

> <JCHEM_ACIDIC_PKA>
4.86

> <JCHEM_BASIC_PKA>
2.43

> <JCHEM_PHYSIOLOGICAL_CHARGE>
-1

> <ALOGPS_LOGP>
0.58

> <JCHEM_LOGP>
0.04

> <ALOGPS_LOGS>
-1.9

> <JCHEM_POLARIZABILITY>
19.15

> <JCHEM_POLAR_SURFACE_AREA>
92.42

> <JCHEM_REFRACTIVITY>
52.88

> <JCHEM_ROTATABLE_BOND_COUNT>
2

> <ALOGPS_SOLUBILITY>
2.29e+00 g/l __ 

$$$$
