
  Mrv0541 02231216232D          

 33 36  0  0  1  0            999 V2000
    4.9924   -0.7930    0.0000 C   0  0  0  0  0  0  0  0  0  0  0  0
    4.9924   -1.6180    0.0000 C   0  0  2  0  0  0  0  0  0  0  0  0
    5.7069   -2.0305    0.0000 C   0  0  0  0  0  0  0  0  0  0  0  0
    6.4214   -1.6180    0.0000 C   0  0  0  0  0  0  0  0  0  0  0  0
    7.1358   -2.0305    0.0000 C   0  0  0  0  0  0  0  0  0  0  0  0
    7.1358   -2.8555    0.0000 O   0  0  0  0  0  0  0  0  0  0  0  0
    7.8503   -1.6180    0.0000 N   0  0  0  0  0  0  0  0  0  0  0  0
    8.5648   -2.0305    0.0000 C   0  0  0  0  0  0  0  0  0  0  0  0
    9.2792   -1.6180    0.0000 C   0  0  0  0  0  0  0  0  0  0  0  0
    9.9937   -2.0305    0.0000 O   0  0  0  0  0  0  0  0  0  0  0  0
    9.2792   -0.7930    0.0000 O   0  0  0  0  0  0  0  0  0  0  0  0
    4.2780   -2.0305    0.0000 C   0  0  2  0  0  0  0  0  0  0  0  0
    4.1917   -2.8510    0.0000 C   0  0  0  0  0  0  0  0  0  0  0  0
    3.3847   -3.0225    0.0000 C   0  0  0  0  0  0  0  0  0  0  0  0
    2.9722   -2.3080    0.0000 C   0  0  1  0  0  0  0  0  0  0  0  0
    2.1653   -2.1365    0.0000 C   0  0  2  0  0  0  0  0  0  0  0  0
    1.6132   -2.7496    0.0000 C   0  0  2  0  0  0  0  0  0  0  0  0
    1.8682   -3.5342    0.0000 O   0  0  0  0  0  0  0  0  0  0  0  0
    0.8063   -2.5781    0.0000 C   0  0  0  0  0  0  0  0  0  0  0  0
    0.5513   -1.7935    0.0000 C   0  0  1  0  0  0  0  0  0  0  0  0
   -0.2556   -1.6219    0.0000 C   0  0  0  0  0  0  0  0  0  0  0  0
   -0.5106   -0.8373    0.0000 C   0  0  1  0  0  0  0  0  0  0  0  0
   -1.3176   -0.6658    0.0000 O   0  0  0  0  0  0  0  0  0  0  0  0
    0.0414   -0.2242    0.0000 C   0  0  0  0  0  0  0  0  0  0  0  0
    0.8484   -0.3957    0.0000 C   0  0  0  0  0  0  0  0  0  0  0  0
    1.1034   -1.1804    0.0000 C   0  0  1  0  0  0  0  0  0  0  0  0
    1.6554   -0.5673    0.0000 C   0  0  0  0  0  0  0  0  0  0  0  0
    1.9103   -1.3519    0.0000 C   0  0  1  0  0  0  0  0  0  0  0  0
    2.4624   -0.7388    0.0000 C   0  0  0  0  0  0  0  0  0  0  0  0
    3.2693   -0.9103    0.0000 C   0  0  1  0  0  0  0  0  0  0  0  0
    3.8214   -0.2972    0.0000 O   0  0  0  0  0  0  0  0  0  0  0  0
    3.5243   -1.6949    0.0000 C   0  0  2  0  0  0  0  0  0  0  0  0
    4.1374   -1.1429    0.0000 C   0  0  0  0  0  0  0  0  0  0  0  0
  2  1  1  6  0  0  0
  2  3  1  0  0  0  0
  3  4  1  0  0  0  0
  4  5  1  0  0  0  0
  5  6  2  0  0  0  0
  5  7  1  0  0  0  0
  7  8  1  0  0  0  0
  8  9  1  0  0  0  0
  9 10  1  0  0  0  0
  9 11  2  0  0  0  0
 12  2  1  6  0  0  0
 12 13  1  0  0  0  0
 13 14  1  0  0  0  0
 15 14  1  1  0  0  0
 15 16  1  0  0  0  0
 16 17  1  0  0  0  0
 17 18  1  6  0  0  0
 17 19  1  0  0  0  0
 20 19  1  1  0  0  0
 20 21  1  0  0  0  0
 21 22  1  0  0  0  0
 22 23  1  1  0  0  0
 22 24  1  0  0  0  0
 24 25  1  0  0  0  0
 25 26  1  0  0  0  0
 20 26  1  0  0  0  0
 26 27  1  1  0  0  0
 26 28  1  0  0  0  0
 16 28  1  6  0  0  0
 28 29  1  1  0  0  0
 29 30  1  0  0  0  0
 30 31  1  1  0  0  0
 30 32  1  0  0  0  0
 12 32  1  0  0  0  0
 15 32  1  0  0  0  0
 32 33  1  1  0  0  0
M  END
> <DRUGBANK_ID>
DB02691

> <DRUG_GROUPS>
experimental

> <GENERIC_NAME>
N-Cholylglycine

> <CHEMICAL_FORMULA>
C26H43NO6

> <MOLECULAR_WEIGHT>
465.6227

> <EXACT_MASS>
465.309038113

> <IUPAC_NAME>
2-[(4R)-4-[(1S,2S,5S,7R,9R,10R,11S,14S,15R,16R)-5,9,16-trihydroxy-2,15-dimethyltetracyclo[8.7.0.0^{2,7}.0^{11,15}]heptadecan-14-yl]pentanamido]acetic acid

> <IUPAC_TRADITIONAL_NAME>
N-cholylglycine

> <INCHI_IDENTIFIER>
InChI=1S/C26H43NO6/c1-14(4-7-22(31)27-13-23(32)33)17-5-6-18-24-19(12-21(30)26(17,18)3)25(2)9-8-16(28)10-15(25)11-20(24)29/h14-21,24,28-30H,4-13H2,1-3H3,(H,27,31)(H,32,33)/t14-,15-,16+,17+,18+,19+,20-,21-,24+,25+,26-/m1/s1

> <INCHI_KEY>
InChIKey=RFDAIACWWDREDC-YUHACDEOSA-N

> <SMILES>
C[C@H](CCC(=O)NCC(O)=O)[C@@H]1CC[C@H]2[C@@H]3[C@H](O)C[C@H]4C[C@@H](O)CC[C@]4(C)[C@H]3C[C@@H](O)[C@]12C

> <JCHEM_ACCEPTOR_COUNT>
6

> <JCHEM_DONOR_COUNT>
5

> <JCHEM_ACIDIC_PKA>
3.77

> <JCHEM_BASIC_PKA>
-0.04

> <JCHEM_PHYSIOLOGICAL_CHARGE>
-1

> <ALOGPS_LOGP>
1.7

> <JCHEM_LOGP>
1.38

> <ALOGPS_LOGS>
-4.3

> <JCHEM_POLARIZABILITY>
52.78

> <JCHEM_POLAR_SURFACE_AREA>
127.09

> <JCHEM_REFRACTIVITY>
123.59

> <JCHEM_ROTATABLE_BOND_COUNT>
6

> <ALOGPS_SOLUBILITY>
2.48e-02 g/l __ 

$$$$
