667
  Mrv0541 02231216062D          

 21 23  0  0  0  0            999 V2000
    3.0409   -0.4801    0.0000 S   0  0  0  0  0  0  0  0  0  0  0  0
    3.4728   -1.1830    0.0000 O   0  0  0  0  0  0  0  0  0  0  0  0
    3.7438   -0.0482    0.0000 O   0  0  0  0  0  0  0  0  0  0  0  0
    2.6090    0.2228    0.0000 O   0  0  0  0  0  0  0  0  0  0  0  0
    2.3380   -0.9120    0.0000 N   0  0  0  0  0  0  0  0  0  0  0  0
    1.7843    0.2003    0.0000 C   0  0  0  0  0  0  0  0  0  0  0  0
    1.3525    0.9032    0.0000 C   0  0  0  0  0  0  0  0  0  0  0  0
    0.5278    0.8806    0.0000 C   0  0  0  0  0  0  0  0  0  0  0  0
    0.1350    0.1552    0.0000 C   0  0  0  0  0  0  0  0  0  0  0  0
    0.5668   -0.5478    0.0000 C   0  0  0  0  0  0  0  0  0  0  0  0
    1.3915   -0.5252    0.0000 C   0  0  0  0  0  0  0  0  0  0  0  0
   -0.6897    0.1326    0.0000 C   0  0  0  0  0  0  0  0  0  0  0  0
   -1.0826   -0.5929    0.0000 C   0  0  0  0  0  0  0  0  0  0  0  0
   -0.6507   -1.2958    0.0000 C   0  0  0  0  0  0  0  0  0  0  0  0
   -1.0120    0.8920    0.0000 C   0  0  0  0  0  0  0  0  0  0  0  0
   -1.8947   -0.7381    0.0000 C   0  0  0  0  0  0  0  0  0  0  0  0
   -1.0435   -2.0213    0.0000 O   0  0  0  0  0  0  0  0  0  0  0  0
    0.1740   -1.2733    0.0000 O   0  0  0  0  0  0  0  0  0  0  0  0
   -2.5146   -0.1937    0.0000 C   0  0  0  0  0  0  0  0  0  0  0  0
   -2.4754    0.6304    0.0000 C   0  0  0  0  0  0  0  0  0  0  0  0
   -1.8067    1.1136    0.0000 C   0  0  0  0  0  0  0  0  0  0  0  0
  1  2  2  0  0  0  0
  1  3  2  0  0  0  0
  1  4  1  0  0  0  0
  1  5  1  0  0  0  0
  4  6  1  0  0  0  0
  6  7  2  0  0  0  0
  6 11  1  0  0  0  0
  7  8  1  0  0  0  0
  8  9  2  0  0  0  0
  9 10  1  0  0  0  0
  9 12  1  0  0  0  0
 10 11  2  0  0  0  0
 10 18  1  0  0  0  0
 12 13  2  0  0  0  0
 12 15  1  0  0  0  0
 13 14  1  0  0  0  0
 13 16  1  0  0  0  0
 14 17  2  0  0  0  0
 14 18  1  0  0  0  0
 15 21  1  0  0  0  0
 16 19  1  0  0  0  0
 19 20  1  0  0  0  0
 20 21  1  0  0  0  0
M  END
> <DRUGBANK_ID>
DB02292

> <DRUG_GROUPS>
experimental

> <GENERIC_NAME>
6-Oxo-8,9,10,11-Tetrahydro-7h-Cyclohepta[C][1]Benzopyran-3-O-Sulfamate

> <CHEMICAL_FORMULA>
C14H15NO5S

> <MOLECULAR_WEIGHT>
309.338

> <EXACT_MASS>
309.067093285

> <IUPAC_NAME>
6-oxo-6H,7H,8H,9H,10H,11H-cyclohepta[c]chromen-3-yl sulfamate

> <IUPAC_TRADITIONAL_NAME>
6-oxo-7H,8H,9H,10H,11H-cyclohepta[c]chromen-3-yl sulfamate

> <INCHI_IDENTIFIER>
InChI=1S/C14H15NO5S/c15-21(17,18)20-9-6-7-11-10-4-2-1-3-5-12(10)14(16)19-13(11)8-9/h6-8H,1-5H2,(H2,15,17,18)

> <INCHI_KEY>
InChIKey=DSLPMJSGSBLWRE-UHFFFAOYSA-N

> <SMILES>
NS(=O)(=O)OC1=CC=C2C3=C(CCCCC3)C(=O)OC2=C1

> <JCHEM_ACCEPTOR_COUNT>
4

> <JCHEM_DONOR_COUNT>
1

> <JCHEM_ACIDIC_PKA>
10.65

> <JCHEM_BASIC_PKA>
-6

> <JCHEM_PHYSIOLOGICAL_CHARGE>
0

> <ALOGPS_LOGP>
2.76

> <JCHEM_LOGP>
1.99

> <ALOGPS_LOGS>
-3.5

> <JCHEM_POLARIZABILITY>
30.67

> <JCHEM_POLAR_SURFACE_AREA>
95.69

> <JCHEM_REFRACTIVITY>
75.7

> <JCHEM_ROTATABLE_BOND_COUNT>
2

> <ALOGPS_SOLUBILITY>
9.67e-02 g/l __ 

$$$$
