BRC
  Mrv0541 02231216112D          

 15 14  0  0  0  0            999 V2000
   -4.0710    0.1832    0.0000 C    0  0  0  0  0  0  0  0  0  0  0  0
   -4.7855   -0.2293    0.0000 O    0  0  0  0  0  0  0  0  0  0  0  0
   -4.0710    1.0083    0.0000 O    0  0  0  0  0  0  0  0  0  0  0  0
   -3.3565   -0.2293    0.0000 C    0  0  0  0  0  0  0  0  0  0  0  0
   -2.6419    0.1832    0.0000 C    0  0  0  0  0  0  0  0  0  0  0  0
   -1.9273   -0.2293    0.0000 C    0  0  0  0  0  0  0  0  0  0  0  0
   -1.2129    0.1832    0.0000 C    0  0  0  0  0  0  0  0  0  0  0  0
   -0.4983   -0.2293    0.0000 C    0  0  0  0  0  0  0  0  0  0  0  0
    0.2162    0.1832    0.0000 C    0  0  0  0  0  0  0  0  0  0  0  0
    0.9307   -0.2293    0.0000 C    0  0  0  0  0  0  0  0  0  0  0  0
    1.6452    0.1832    0.0000 C    0  0  0  0  0  0  0  0  0  0  0  0
    2.3598   -0.2293    0.0000 C    0  0  0  0  0  0  0  0  0  0  0  0
    3.0743    0.1832    0.0000 C    0  0  0  0  0  0  0  0  0  0  0  0
    3.7888   -0.2293    0.0000 C    0  0  0  0  0  0  0  0  0  0  0  0
    4.5033    0.1832    0.0000 Br   0  0  0  0  0  0  0  0  0  0  0  0
  1  2  2  0  0  0  0
  1  3  1  0  0  0  0
  1  4  1  0  0  0  0
  4  5  1  0  0  0  0
  5  6  1  0  0  0  0
  6  7  1  0  0  0  0
  7  8  1  0  0  0  0
  8  9  1  0  0  0  0
  9 10  1  0  0  0  0
 10 11  1  0  0  0  0
 11 12  1  0  0  0  0
 12 13  1  0  0  0  0
 13 14  1  0  0  0  0
 14 15  1  0  0  0  0
M  END
> <DRUGBANK_ID>
DB02405

> <DRUG_GROUPS>
experimental

> <GENERIC_NAME>
12-Bromododecanoic Acid

> <CHEMICAL_FORMULA>
C12H23BrO2

> <MOLECULAR_WEIGHT>
279.214

> <EXACT_MASS>
278.088142627

> <IUPAC_NAME>
12-bromododecanoic acid

> <IUPAC_TRADITIONAL_NAME>
12-bromododecanoic acid

> <INCHI_IDENTIFIER>
InChI=1S/C12H23BrO2/c13-11-9-7-5-3-1-2-4-6-8-10-12(14)15/h1-11H2,(H,14,15)

> <INCHI_KEY>
InChIKey=YYKBWYBUCFHYPR-UHFFFAOYSA-N

> <SMILES>
OC(=O)CCCCCCCCCCCBr

> <JCHEM_ACCEPTOR_COUNT>
2

> <JCHEM_DONOR_COUNT>
1

> <JCHEM_ACIDIC_PKA>
4.95

> <JCHEM_PHYSIOLOGICAL_CHARGE>
-1

> <ALOGPS_LOGP>
5.56

> <JCHEM_LOGP>
4.58

> <ALOGPS_LOGS>
-5.3

> <JCHEM_POLARIZABILITY>
29.3

> <JCHEM_POLAR_SURFACE_AREA>
37.3

> <JCHEM_REFRACTIVITY>
66.64

> <JCHEM_ROTATABLE_BOND_COUNT>
11

> <ALOGPS_SOLUBILITY>
1.38e-03 g/l __ 

$$$$
