
  Mrv0541 02231216052D          

 19 21  0  0  1  0            999 V2000
    3.2789    2.0625    0.0000 N   0  0  0  0  0  0  0  0  0  0  0  0
    3.2789    1.2375    0.0000 C   0  0  0  0  0  0  0  0  0  0  0  0
    3.9934    0.8250    0.0000 N   0  0  0  0  0  0  0  0  0  0  0  0
    3.9934    0.0000    0.0000 C   0  0  0  0  0  0  0  0  0  0  0  0
    3.2789   -0.4125    0.0000 N   0  0  0  0  0  0  0  0  0  0  0  0
    2.5645    0.0000    0.0000 C   0  0  0  0  0  0  0  0  0  0  0  0
    1.7798   -0.2549    0.0000 C   0  0  0  0  0  0  0  0  0  0  0  0
    1.2949    0.4125    0.0000 N   0  0  0  0  0  0  0  0  0  0  0  0
    1.7798    1.0799    0.0000 N   0  0  0  0  0  0  0  0  0  0  0  0
    2.5645    0.8250    0.0000 C   0  0  0  0  0  0  0  0  0  0  0  0
    1.5249   -1.0396    0.0000 C   0  0  2  0  0  0  0  0  0  0  0  0
    2.0098   -1.7070    0.0000 O   0  0  0  0  0  0  0  0  0  0  0  0
    1.5249   -2.3744    0.0000 C   0  0  1  0  0  0  0  0  0  0  0  0
    1.7798   -3.1591    0.0000 C   0  0  0  0  0  0  0  0  0  0  0  0
    2.5868   -3.3306    0.0000 O   0  0  0  0  0  0  0  0  0  0  0  0
    0.7403   -2.1195    0.0000 C   0  0  2  0  0  0  0  0  0  0  0  0
    0.0728   -2.6044    0.0000 O   0  0  0  0  0  0  0  0  0  0  0  0
    0.7403   -1.2945    0.0000 C   0  0  1  0  0  0  0  0  0  0  0  0
    0.0728   -0.8096    0.0000 O   0  0  0  0  0  0  0  0  0  0  0  0
  1  2  1  0  0  0  0
  2  3  4  0  0  0  0
  3  4  4  0  0  0  0
  4  5  4  0  0  0  0
  5  6  4  0  0  0  0
  6  7  4  0  0  0  0
  7  8  4  0  0  0  0
  8  9  4  0  0  0  0
  9 10  4  0  0  0  0
  2 10  4  0  0  0  0
  6 10  4  0  0  0  0
 11  7  1  6  0  0  0
 11 12  1  0  0  0  0
 12 13  1  0  0  0  0
 13 14  1  1  0  0  0
 14 15  1  0  0  0  0
 13 16  1  0  0  0  0
 16 17  1  6  0  0  0
 16 18  1  0  0  0  0
 11 18  1  0  0  0  0
 18 19  1  1  0  0  0
M  END
> <DRUGBANK_ID>
DB02281

> <DRUG_GROUPS>
experimental

> <GENERIC_NAME>
Formycin

> <CHEMICAL_FORMULA>
C10H12N5O4

> <MOLECULAR_WEIGHT>
266.2334

> <EXACT_MASS>
266.088928897

> <IUPAC_NAME>
(2S,3R,4R,5S)-2-{7-aminopyrazolo[4,3-d]pyrimidin-3-yl}-5-(hydroxymethyl)oxolane-3,4-diol

> <IUPAC_TRADITIONAL_NAME>
formycin

> <INCHI_IDENTIFIER>
InChI=1S/C10H12N5O4/c11-10-6-4(12-2-13-10)5(14-15-6)9-8(18)7(17)3(1-16)19-9/h2-3,7-9,16-18H,1H2,(H2,11,13)/t3-,7-,8+,9-/m0/s1

> <INCHI_KEY>
InChIKey=OLDFCABASJKCEZ-IGPDFVGCSA-N

> <SMILES>
Nc1ncnc2c(nnc12)[C@@H]1O[C@@H](CO)[C@H](O)[C@H]1O

> <JCHEM_ACCEPTOR_COUNT>
9

> <JCHEM_DONOR_COUNT>
4

> <JCHEM_ACIDIC_PKA>
12.58

> <JCHEM_BASIC_PKA>
0.91

> <JCHEM_PHYSIOLOGICAL_CHARGE>
0

> <ALOGPS_LOGP>
-1.2

> <JCHEM_LOGP>
-2.8

> <ALOGPS_LOGS>
-1.4

> <JCHEM_POLARIZABILITY>
24.75

> <JCHEM_POLAR_SURFACE_AREA>
147.5

> <JCHEM_REFRACTIVITY>
63.51

> <JCHEM_ROTATABLE_BOND_COUNT>
2

> <ALOGPS_SOLUBILITY>
1.02e+01 g/l __ 

$$$$
