
  Mrv0541 02231216152D          

 20 22  0  0  1  0            999 V2000
    2.7845    0.6979    0.0000 N   0  0  0  0  0  0  0  0  0  0  0  0
    2.0701    1.1104    0.0000 C   0  0  0  0  0  0  0  0  0  0  0  0
    1.3556    0.6979    0.0000 N   0  0  0  0  0  0  0  0  0  0  0  0
    0.6411    1.1104    0.0000 C   0  0  0  0  0  0  0  0  0  0  0  0
    0.6411    1.9354    0.0000 C   0  0  0  0  0  0  0  0  0  0  0  0
   -0.1435    2.1904    0.0000 N   0  0  0  0  0  0  0  0  0  0  0  0
   -0.6284    1.5229    0.0000 C   0  0  0  0  0  0  0  0  0  0  0  0
   -1.4534    1.5229    0.0000 O   0  0  0  0  0  0  0  0  0  0  0  0
   -0.1435    0.8555    0.0000 N   0  0  0  0  0  0  0  0  0  0  0  0
   -0.3984    0.0709    0.0000 C   0  0  1  0  0  0  0  0  0  0  0  0
    0.0865   -0.5966    0.0000 C   0  0  0  0  0  0  0  0  0  0  0  0
   -0.3984   -1.2640    0.0000 C   0  0  1  0  0  0  0  0  0  0  0  0
   -0.1435   -2.0486    0.0000 O   0  0  0  0  0  0  0  0  0  0  0  0
   -1.1831   -1.0091    0.0000 C   0  0  2  0  0  0  0  0  0  0  0  0
   -1.8505   -1.4940    0.0000 C   0  0  0  0  0  0  0  0  0  0  0  0
   -1.7643   -2.3145    0.0000 O   0  0  0  0  0  0  0  0  0  0  0  0
   -1.1831   -0.1841    0.0000 O   0  0  0  0  0  0  0  0  0  0  0  0
    1.3556    2.3479    0.0000 C   0  0  0  0  0  0  0  0  0  0  0  0
    1.3556    3.1729    0.0000 O   0  0  0  0  0  0  0  0  0  0  0  0
    2.0701    1.9354    0.0000 N   0  0  0  0  0  0  0  0  0  0  0  0
  1  2  1  0  0  0  0
  2  3  2  0  0  0  0
  3  4  1  0  0  0  0
  4  5  2  0  0  0  0
  5  6  1  0  0  0  0
  6  7  2  0  0  0  0
  7  8  1  0  0  0  0
  7  9  1  0  0  0  0
  4  9  1  0  0  0  0
 10  9  1  1  0  0  0
 10 11  1  0  0  0  0
 11 12  1  0  0  0  0
 12 13  1  1  0  0  0
 12 14  1  0  0  0  0
 14 15  1  6  0  0  0
 15 16  1  0  0  0  0
 14 17  1  0  0  0  0
 10 17  1  0  0  0  0
  5 18  1  0  0  0  0
 18 19  2  0  0  0  0
 18 20  1  0  0  0  0
  2 20  1  0  0  0  0
M  END
> <DRUGBANK_ID>
DB02502

> <DRUG_GROUPS>
experimental

> <GENERIC_NAME>
8-Hydroxy-2'-Deoxyguanosine

> <CHEMICAL_FORMULA>
C10H13N5O5

> <MOLECULAR_WEIGHT>
283.2407

> <EXACT_MASS>
283.091668551

> <IUPAC_NAME>
2-amino-8-hydroxy-9-[(2R,4R,5S)-4-hydroxy-5-(hydroxymethyl)oxolan-2-yl]-6,9-dihydro-1H-purin-6-one

> <IUPAC_TRADITIONAL_NAME>
2-amino-8-hydroxy-9-[(2R,4R,5S)-4-hydroxy-5-(hydroxymethyl)oxolan-2-yl]-1H-purin-6-one

> <INCHI_IDENTIFIER>
InChI=1S/C10H13N5O5/c11-9-13-7-6(8(18)14-9)12-10(19)15(7)5-1-3(17)4(2-16)20-5/h3-5,16-17H,1-2H2,(H,12,19)(H3,11,13,14,18)/t3-,4+,5-/m1/s1

> <INCHI_KEY>
InChIKey=HCAJQHYUCKICQH-MROZADKFSA-N

> <SMILES>
NC1=NC2=C(N=C(O)N2[C@H]2C[C@@H](O)[C@H](CO)O2)C(=O)N1

> <JCHEM_ACCEPTOR_COUNT>
8

> <JCHEM_DONOR_COUNT>
5

> <JCHEM_ACIDIC_PKA>
10.09

> <JCHEM_BASIC_PKA>
1.59

> <JCHEM_PHYSIOLOGICAL_CHARGE>
0

> <ALOGPS_LOGP>
-1.7

> <JCHEM_LOGP>
-1.4

> <ALOGPS_LOGS>
-1.3

> <JCHEM_POLARIZABILITY>
26.12

> <JCHEM_POLAR_SURFACE_AREA>
155.22

> <JCHEM_REFRACTIVITY>
64.56

> <JCHEM_ROTATABLE_BOND_COUNT>
2

> <ALOGPS_SOLUBILITY>
1.48e+01 g/l __ 

$$$$
