
  Mrv0541 02231216122D          

 12 11  0  0  1  0            999 V2000
    3.7125    1.3184    0.0000 N   0  0  0  0  0  0  0  0  0  0  0  0
    3.7125    2.1434    0.0000 C   0  0  2  0  0  0  0  0  0  0  0  0
    2.9980    2.5559    0.0000 C   0  0  0  0  0  0  0  0  0  0  0  0
    2.2836    2.1434    0.0000 O   0  0  0  0  0  0  0  0  0  0  0  0
    4.4270    2.5559    0.0000 C   0  0  0  0  0  0  0  0  0  0  0  0
    5.1414    2.1434    0.0000 C   0  0  0  0  0  0  0  0  0  0  0  0
    5.8559    2.5559    0.0000 C   0  0  0  0  0  0  0  0  0  0  0  0
    6.5704    2.1434    0.0000 C   0  0  0  0  0  0  0  0  0  0  0  0
    7.2849    2.5559    0.0000 N   0  0  0  0  0  0  0  0  0  0  0  0
    7.9993    2.1434    0.0000 C   0  0  0  0  0  0  0  0  0  0  0  0
    8.7138    2.5559    0.0000 O   0  0  0  0  0  0  0  0  0  0  0  0
    7.9993    1.3184    0.0000 O   0  0  0  0  0  0  0  0  0  0  0  0
  2  1  1  6  0  0  0
  2  3  1  0  0  0  0
  3  4  1  0  0  0  0
  2  5  1  0  0  0  0
  5  6  1  0  0  0  0
  6  7  1  0  0  0  0
  7  8  1  0  0  0  0
  8  9  1  0  0  0  0
  9 10  1  0  0  0  0
 10 11  1  0  0  0  0
 10 12  2  0  0  0  0
M  END
> <DRUGBANK_ID>
DB02437

> <DRUG_GROUPS>
experimental

> <GENERIC_NAME>
(5r)-5-Amino-6-Hydroxyhexylcarbamic Acid

> <CHEMICAL_FORMULA>
C7H16N2O3

> <MOLECULAR_WEIGHT>
176.2135

> <EXACT_MASS>
176.116092388

> <IUPAC_NAME>
[(5S)-5-amino-6-hydroxyhexyl]carbamic acid

> <IUPAC_TRADITIONAL_NAME>
(5S)-5-amino-6-hydroxyhexylcarbamic acid

> <INCHI_IDENTIFIER>
InChI=1S/C7H16N2O3/c8-6(5-10)3-1-2-4-9-7(11)12/h6,9-10H,1-5,8H2,(H,11,12)/t6-/m0/s1

> <INCHI_KEY>
InChIKey=XHKWPAAHPLALGC-LURJTMIESA-N

> <SMILES>
N[C@H](CO)CCCCNC(O)=O

> <JCHEM_ACCEPTOR_COUNT>
4

> <JCHEM_DONOR_COUNT>
4

> <JCHEM_ACIDIC_PKA>
4.13

> <JCHEM_BASIC_PKA>
9.83

> <JCHEM_PHYSIOLOGICAL_CHARGE>
0

> <ALOGPS_LOGP>
-2.7

> <JCHEM_LOGP>
-3

> <ALOGPS_LOGS>
-0.83

> <JCHEM_POLARIZABILITY>
19.06

> <JCHEM_POLAR_SURFACE_AREA>
95.58

> <JCHEM_REFRACTIVITY>
44.24

> <JCHEM_ROTATABLE_BOND_COUNT>
6

> <ALOGPS_SOLUBILITY>
2.63e+01 g/l __ 

$$$$
