
  Mrv0541 02231215542D          

 24 26  0  0  1  0            999 V2000
    2.7845    0.6979    0.0000 N   0  0  0  0  0  0  0  0  0  0  0  0
    2.0701    1.1104    0.0000 C   0  0  0  0  0  0  0  0  0  0  0  0
    1.3556    0.6979    0.0000 N   0  0  0  0  0  0  0  0  0  0  0  0
    0.6411    1.1104    0.0000 C   0  0  0  0  0  0  0  0  0  0  0  0
    0.6411    1.9354    0.0000 C   0  0  0  0  0  0  0  0  0  0  0  0
   -0.1435    2.1904    0.0000 N   0  0  0  0  0  0  0  0  0  0  0  0
   -0.6284    1.5229    0.0000 C   0  0  0  0  0  0  0  0  0  0  0  0
   -1.4534    1.5229    0.0000 O   0  0  0  0  0  0  0  0  0  0  0  0
   -0.1435    0.8555    0.0000 N   0  0  0  0  0  0  0  0  0  0  0  0
   -0.3984    0.0709    0.0000 C   0  0  1  0  0  0  0  0  0  0  0  0
    0.0865   -0.5966    0.0000 C   0  0  0  0  0  0  0  0  0  0  0  0
   -0.3984   -1.2640    0.0000 C   0  0  1  0  0  0  0  0  0  0  0  0
   -0.1435   -2.0486    0.0000 O   0  0  0  0  0  0  0  0  0  0  0  0
   -1.1831   -1.0091    0.0000 C   0  0  2  0  0  0  0  0  0  0  0  0
   -1.8505   -1.4940    0.0000 C   0  0  0  0  0  0  0  0  0  0  0  0
   -2.6042   -1.1584    0.0000 O   0  0  0  0  0  0  0  0  0  0  0  0
   -3.2716   -1.6433    0.0000 P   0  0  0  0  0  0  0  0  0  0  0  0
   -3.9391   -2.1283    0.0000 O   0  0  0  0  0  0  0  0  0  0  0  0
   -3.7565   -0.9759    0.0000 O   0  0  0  0  0  0  0  0  0  0  0  0
   -2.7867   -2.3108    0.0000 O   0  0  0  0  0  0  0  0  0  0  0  0
   -1.1831   -0.1841    0.0000 O   0  0  0  0  0  0  0  0  0  0  0  0
    1.3556    2.3479    0.0000 C   0  0  0  0  0  0  0  0  0  0  0  0
    1.3556    3.1729    0.0000 O   0  0  0  0  0  0  0  0  0  0  0  0
    2.0701    1.9354    0.0000 N   0  0  0  0  0  0  0  0  0  0  0  0
  1  2  1  0  0  0  0
  2  3  2  0  0  0  0
  3  4  1  0  0  0  0
  4  5  2  0  0  0  0
  5  6  1  0  0  0  0
  6  7  1  0  0  0  0
  7  8  2  0  0  0  0
  7  9  1  0  0  0  0
  4  9  1  0  0  0  0
 10  9  1  1  0  0  0
 10 11  1  0  0  0  0
 11 12  1  0  0  0  0
 12 13  1  1  0  0  0
 12 14  1  0  0  0  0
 14 15  1  6  0  0  0
 15 16  1  0  0  0  0
 16 17  1  0  0  0  0
 17 18  1  0  0  0  0
 17 19  1  0  0  0  0
 17 20  2  0  0  0  0
 14 21  1  0  0  0  0
 10 21  1  0  0  0  0
  5 22  1  0  0  0  0
 22 23  2  0  0  0  0
 22 24  1  0  0  0  0
  2 24  1  0  0  0  0
M  END
> <DRUGBANK_ID>
DB02023

> <DRUG_GROUPS>
experimental

> <GENERIC_NAME>
8-Oxo-2'-Deoxy-Guanosine-5'-Monophosphate

> <CHEMICAL_FORMULA>
C10H14N5O8P

> <MOLECULAR_WEIGHT>
363.2206

> <EXACT_MASS>
363.057998961

> <IUPAC_NAME>
{[(2S,3R,5R)-5-(2-amino-6,8-dioxo-6,7,8,9-tetrahydro-1H-purin-9-yl)-3-hydroxyoxolan-2-yl]methoxy}phosphonic acid

> <IUPAC_TRADITIONAL_NAME>
[(2S,3R,5R)-5-(2-amino-6,8-dioxo-1,7-dihydropurin-9-yl)-3-hydroxyoxolan-2-yl]methoxyphosphonic acid

> <INCHI_IDENTIFIER>
InChI=1S/C10H14N5O8P/c11-9-13-7-6(8(17)14-9)12-10(18)15(7)5-1-3(16)4(23-5)2-22-24(19,20)21/h3-5,16H,1-2H2,(H,12,18)(H2,19,20,21)(H3,11,13,14,17)/t3-,4+,5-/m1/s1

> <INCHI_KEY>
InChIKey=AQIVLFLYHYFRKU-MROZADKFSA-N

> <SMILES>
NC1=NC2=C(NC(=O)N2[C@H]2C[C@@H](O)[C@H](COP(O)(O)=O)O2)C(=O)N1

> <JCHEM_ACCEPTOR_COUNT>
9

> <JCHEM_DONOR_COUNT>
6

> <JCHEM_ACIDIC_PKA>
1.22

> <JCHEM_BASIC_PKA>
3.29

> <JCHEM_PHYSIOLOGICAL_CHARGE>
-2

> <ALOGPS_LOGP>
-1.8

> <JCHEM_LOGP>
-2.7

> <ALOGPS_LOGS>
-1.7

> <JCHEM_POLARIZABILITY>
30.62

> <JCHEM_POLAR_SURFACE_AREA>
196.04

> <JCHEM_REFRACTIVITY>
83.77

> <JCHEM_ROTATABLE_BOND_COUNT>
4

> <ALOGPS_SOLUBILITY>
6.61e+00 g/l __ 

$$$$
