
  Mrv0541 02231216332D          

 44 51  0  0  0  0            999 V2000
   -3.4660   -0.8150    0.0000 C    0  0  0  0  0  0  0  0  0  0  0  0
   -2.7684   -0.3746    0.0000 C    0  0  0  0  0  0  0  0  0  0  0  0
   -2.7146    0.4486    0.0000 C    0  0  0  0  0  0  0  0  0  0  0  0
   -3.3490    0.9760    0.0000 C    0  0  0  0  0  0  0  0  0  0  0  0
   -4.1230    0.6903    0.0000 C    0  0  0  0  0  0  0  0  0  0  0  0
   -1.9151    0.6519    0.0000 C    0  0  0  0  0  0  0  0  0  0  0  0
   -1.3945    1.5893    0.0000 C    0  0  0  0  0  0  0  0  0  0  0  0
   -0.6802    2.0020    0.0000 C    0  0  0  0  0  0  0  0  0  0  0  0
   -0.0457    1.4746    0.0000 N    0  5  0  0  0  0  0  0  0  0  0  0
    0.6519    1.9151    0.0000 C    0  0  0  0  0  0  0  0  0  0  0  0
    1.5893    1.3945    0.0000 C    0  0  0  0  0  0  0  0  0  0  0  0
    2.0020    0.6802    0.0000 C    0  0  0  0  0  0  0  0  0  0  0  0
    2.7684    0.3746    0.0000 C    0  0  0  0  0  0  0  0  0  0  0  0
    3.4660    0.8150    0.0000 C    0  0  0  0  0  0  0  0  0  0  0  0
    3.4334    1.6394    0.0000 C    0  0  0  0  0  0  0  0  0  0  0  0
    4.1310    2.0798    0.0000 C    0  0  0  0  0  0  0  0  0  0  0  0
    4.0984    2.9042    0.0000 O    0  0  0  0  0  0  0  0  0  0  0  0
    4.8612    1.6958    0.0000 O    0  0  0  0  0  0  0  0  0  0  0  0
    2.7146   -0.4486    0.0000 C    0  0  0  0  0  0  0  0  0  0  0  0
    3.3490   -0.9760    0.0000 C    0  0  0  0  0  0  0  0  0  0  0  0
    1.9151   -0.6519    0.0000 C    0  0  0  0  0  0  0  0  0  0  0  0
    1.4746    0.0457    0.0000 N    0  0  0  0  0  0  0  0  0  0  0  0
    0.0000    0.0000    0.0000 Zn   0  2  0  0  0  0  0  0  0  0  0  0
   -1.4746   -0.0457    0.0000 N    0  0  0  0  0  0  0  0  0  0  0  0
   -2.0020   -0.6802    0.0000 C    0  0  0  0  0  0  0  0  0  0  0  0
   -1.5893   -1.3945    0.0000 C    0  0  0  0  0  0  0  0  0  0  0  0
   -0.6519   -1.9151    0.0000 C    0  0  0  0  0  0  0  0  0  0  0  0
    0.0457   -1.4746    0.0000 N    0  5  0  0  0  0  0  0  0  0  0  0
    0.6802   -2.0020    0.0000 C    0  0  0  0  0  0  0  0  0  0  0  0
    0.3746   -2.7684    0.0000 C    0  0  0  0  0  0  0  0  0  0  0  0
    0.8150   -3.4660    0.0000 C    0  0  0  0  0  0  0  0  0  0  0  0
   -0.4486   -2.7146    0.0000 C    0  0  0  0  0  0  0  0  0  0  0  0
   -0.9760   -3.3490    0.0000 C    0  0  0  0  0  0  0  0  0  0  0  0
   -1.7891   -3.2095    0.0000 C    0  0  0  0  0  0  0  0  0  0  0  0
    1.3945   -1.5893    0.0000 C    0  0  0  0  0  0  0  0  0  0  0  0
    1.9828   -2.1677    0.0000 O    0  0  0  0  0  0  0  0  0  0  0  0
    0.4486    2.7146    0.0000 C    0  0  0  0  0  0  0  0  0  0  0  0
    0.9760    3.3490    0.0000 C    0  0  0  0  0  0  0  0  0  0  0  0
    0.6903    4.1230    0.0000 C    0  0  0  0  0  0  0  0  0  0  0  0
    1.2176    4.7574    0.0000 C    0  0  0  0  0  0  0  0  0  0  0  0
    2.0308    4.6179    0.0000 O    0  0  0  0  0  0  0  0  0  0  0  0
    0.9319    5.5313    0.0000 O    0  0  0  0  0  0  0  0  0  0  0  0
   -0.3746    2.7684    0.0000 C    0  0  0  0  0  0  0  0  0  0  0  0
   -0.8150    3.4660    0.0000 C    0  0  0  0  0  0  0  0  0  0  0  0
  1  2  1  0  0  0  0
  2  3  2  0  0  0  0
  3  4  1  0  0  0  0
  4  5  2  0  0  0  0
  3  6  1  0  0  0  0
  6  7  2  0  0  0  0
  7  8  1  0  0  0  0
  8  9  2  0  0  0  0
  9 10  1  0  0  0  0
 10 11  2  0  0  0  0
 11 12  1  0  0  0  0
 12 13  2  0  0  0  0
 13 14  1  0  0  0  0
 14 15  1  0  0  0  0
 15 16  1  0  0  0  0
 16 17  1  0  0  0  0
 16 18  2  0  0  0  0
 13 19  1  0  0  0  0
 19 20  1  0  0  0  0
 19 21  2  0  0  0  0
 21 22  1  0  0  0  0
 12 22  1  0  0  0  0
 22 23  1  0  0  0  0
  9 23  1  0  0  0  0
 23 24  1  0  0  0  0
  6 24  1  0  0  0  0
 24 25  1  0  0  0  0
  2 25  1  0  0  0  0
 25 26  2  0  0  0  0
 26 27  1  0  0  0  0
 27 28  2  0  0  0  0
 23 28  1  0  0  0  0
 28 29  1  0  0  0  0
 29 30  1  0  0  0  0
 30 31  1  0  0  0  0
 30 32  2  0  0  0  0
 27 32  1  0  0  0  0
 32 33  1  0  0  0  0
 33 34  2  0  0  0  0
 29 35  2  0  0  0  0
 21 35  1  0  0  0  0
 35 36  1  0  0  0  0
 10 37  1  0  0  0  0
 37 38  1  0  0  0  0
 38 39  1  0  0  0  0
 39 40  1  0  0  0  0
 40 41  1  0  0  0  0
 40 42  2  0  0  0  0
 37 43  2  0  0  0  0
  8 43  1  0  0  0  0
 43 44  1  0  0  0  0
M  END
> <DRUGBANK_ID>
DB02920

> <DRUG_GROUPS>
experimental

> <GENERIC_NAME>
Zn(Ii)-(20-Oxo-Protoporphyrin Ix)

> <CHEMICAL_FORMULA>
C34H32N4O5Zn

> <MOLECULAR_WEIGHT>
642.051

> <EXACT_MASS>
640.166416732

> <IUPAC_NAME>
10,14-bis(2-carboxyethyl)-4,19-diethenyl-7-hydroxy-5,9,15,20-tetramethyl-2,22,23,25-tetraaza-1-zincaoctacyclo[11.9.1.1^{1,8}.1^{3,21}.0^{2,6}.0^{16,23}.0^{18,22}.0^{11,25}]pentacosa-2,4,6,8,10,12,14,16(23),17,19,21(24)-undecaene-1,1-bis(ylium)-2,23-diuide

> <IUPAC_TRADITIONAL_NAME>
10,14-bis(2-carboxyethyl)-4,19-diethenyl-7-hydroxy-5,9,15,20-tetramethyl-2,22,23,25-tetraaza-1-zincaoctacyclo[11.9.1.1^{1,8}.1^{3,21}.0^{2,6}.0^{16,23}.0^{18,22}.0^{11,25}]pentacosa-2,4,6,8,10,12,14,16(23),17,19,21(24)-undecaene-1,1-bis(ylium)-2,23-diuide

> <INCHI_IDENTIFIER>
InChI=1S/C34H34N4O5.Zn/c1-7-20-16(3)24-14-27-21(8-2)18(5)32(37-27)34(43)33-19(6)23(10-12-31(41)42)29(38-33)15-28-22(9-11-30(39)40)17(4)25(36-28)13-26(20)35-24;/h7-8,13-15H,1-2,9-12H2,3-6H3,(H5,35,36,37,38,39,40,41,42,43);/q;+2/p-2/b24-14-,25-13-,26-13-,27-14-,28-15-,29-15-,34-32+,34-33+;

> <INCHI_KEY>
InChIKey=GKGQUBKNYNPVCL-GYHFSKQYSA-L

> <SMILES>
CC1=C(C=C)C2=CC3=[N-]4C(=CC5=C(CCC(O)=O)C(C)=C6N5[Zn++]44N2C1=CC1=[N-]4C(C(C)=C1C=C)=C6O)C(CCC(O)=O)=C3C

> <JCHEM_ACCEPTOR_COUNT>
0

> <JCHEM_DONOR_COUNT>
0

> <JCHEM_PHYSIOLOGICAL_CHARGE>
0

> <JCHEM_POLARIZABILITY>
70.41

> <JCHEM_POLAR_SURFACE_AREA>
109.02

> <JCHEM_REFRACTIVITY>
178.08

> <JCHEM_ROTATABLE_BOND_COUNT>
8 __ 

$$$$
