
  Mrv0541 02231216132D          

 63 67  0  0  1  0            999 V2000
    2.3462    0.5115    0.0000 C   0  0  0  0  0  0  0  0  0  0  0  0
    2.8370   -0.1516    0.0000 C   0  0  0  0  0  0  0  0  0  0  0  0
    3.6119    0.1314    0.0000 C   0  0  0  0  0  0  0  0  0  0  0  0
    4.1206   -0.5181    0.0000 N   0  0  0  0  0  0  0  0  0  0  0  0
    4.8955   -0.2350    0.0000 C   0  0  2  0  0  0  0  0  0  0  0  0
    5.6462    0.1072    0.0000 C   0  0  0  0  0  0  0  0  0  0  0  0
    5.6725   -0.9611    0.0000 C   0  0  1  0  0  0  0  0  0  0  0  0
    5.2120   -1.6456    0.0000 N   0  0  0  0  0  0  0  0  0  0  0  0
    5.7207   -2.2951    0.0000 C   0  0  0  0  0  0  0  0  0  0  0  0
    5.2702   -3.2585    0.0000 C   0  0  0  0  0  0  0  0  0  0  0  0
    5.8881   -3.8052    0.0000 C   0  0  0  0  0  0  0  0  0  0  0  0
    4.5710   -3.6965    0.0000 C   0  0  0  0  0  0  0  0  0  0  0  0
    3.9384   -3.1670    0.0000 N   0  0  0  0  0  0  0  0  0  0  0  0
    3.2393   -3.6050    0.0000 C   0  0  0  0  0  0  0  0  0  0  0  0
    2.3283   -3.0562    0.0000 C   0  0  0  0  0  0  0  0  0  0  0  0
    1.9658   -2.3152    0.0000 C   0  0  0  0  0  0  0  0  0  0  0  0
    2.5586   -1.7414    0.0000 N   0  0  0  0  0  0  0  0  0  0  0  0
    2.1961   -1.0003    0.0000 C   0  0  0  0  0  0  0  0  0  0  0  0
    1.3792   -1.1161    0.0000 C   0  0  2  0  0  0  0  0  0  0  0  0
    1.3495   -0.2916    0.0000 C   0  0  0  0  0  0  0  0  0  0  0  0
    0.5562   -1.0595    0.0000 C   0  0  0  0  0  0  0  0  0  0  0  0
    0.1936   -0.3184    0.0000 C   0  0  0  0  0  0  0  0  0  0  0  0
   -0.6294   -0.2618    0.0000 O   0  0  0  0  0  0  0  0  0  0  0  0
    0.6542    0.3661    0.0000 O   0  0  0  0  0  0  0  0  0  0  0  0
    1.2369   -1.9287    0.0000 C   0  0  1  0  0  0  0  0  0  0  0  0
    0.4958   -2.2912    0.0000 C   0  0  0  0  0  0  0  0  0  0  0  0
    0.4392   -3.1143    0.0000 C   0  0  0  0  0  0  0  0  0  0  0  0
    1.1237   -3.5748    0.0000 C   0  0  0  0  0  0  0  0  0  0  0  0
    1.0671   -4.3979    0.0000 O   0  0  0  0  0  0  0  0  0  0  0  0
    1.8648   -3.2123    0.0000 O   0  0  0  0  0  0  0  0  0  0  0  0
    3.4398   -4.4052    0.0000 C   0  0  0  0  0  0  0  0  0  0  0  0
    2.6230   -4.5210    0.0000 C   0  0  0  0  0  0  0  0  0  0  0  0
    3.4696   -5.2297    0.0000 C   0  0  0  0  0  0  0  0  0  0  0  0
    4.2629   -4.4618    0.0000 C   0  0  1  0  0  0  0  0  0  0  0  0
    4.7009   -5.1609    0.0000 C   0  0  0  0  0  0  0  0  0  0  0  0
    4.3144   -5.8898    0.0000 C   0  0  0  0  0  0  0  0  0  0  0  0
    4.7524   -6.5889    0.0000 C   0  0  0  0  0  0  0  0  0  0  0  0
    5.5769   -6.5592    0.0000 O   0  0  0  0  0  0  0  0  0  0  0  0
    4.3659   -7.3178    0.0000 O   0  0  0  0  0  0  0  0  0  0  0  0
    6.4956   -2.0121    0.0000 C   0  0  1  0  0  0  0  0  0  0  0  0
    6.6961   -2.8123    0.0000 C   0  0  0  0  0  0  0  0  0  0  0  0
    7.3124   -1.8963    0.0000 C   0  0  0  0  0  0  0  0  0  0  0  0
    7.8211   -2.5458    0.0000 C   0  0  0  0  0  0  0  0  0  0  0  0
    7.5129   -3.3111    0.0000 C   0  0  0  0  0  0  0  0  0  0  0  0
    8.0216   -3.9606    0.0000 O   0  0  0  0  0  0  0  0  0  0  0  0
    6.6961   -3.4269    0.0000 O   0  0  0  0  0  0  0  0  0  0  0  0
    6.4658   -1.1876    0.0000 C   0  0  2  0  0  0  0  0  0  0  0  0
    7.1153   -0.6789    0.0000 C   0  0  0  0  0  0  0  0  0  0  0  0
    7.8806   -0.9871    0.0000 C   0  0  0  0  0  0  0  0  0  0  0  0
    8.5301   -0.4784    0.0000 O   0  0  0  0  0  0  0  0  0  0  0  0
    7.9964   -1.8039    0.0000 O   0  0  0  0  0  0  0  0  0  0  0  0
    4.8657    0.5895    0.0000 C   0  0  2  0  0  0  0  0  0  0  0  0
    5.6888    0.5329    0.0000 C   0  0  0  0  0  0  0  0  0  0  0  0
    5.0081    1.4021    0.0000 C   0  0  0  0  0  0  0  0  0  0  0  0
    5.7830    1.6852    0.0000 C   0  0  0  0  0  0  0  0  0  0  0  0
    5.9253    2.4978    0.0000 O   0  0  0  0  0  0  0  0  0  0  0  0
    6.4156    1.1556    0.0000 O   0  0  0  0  0  0  0  0  0  0  0  0
    4.0724    0.8159    0.0000 C   0  0  1  0  0  0  0  0  0  0  0  0
    3.7894    1.5908    0.0000 C   0  0  0  0  0  0  0  0  0  0  0  0
    2.9767    1.7332    0.0000 C   0  0  0  0  0  0  0  0  0  0  0  0
    2.6937    2.5081    0.0000 C   0  0  0  0  0  0  0  0  0  0  0  0
    3.2232    3.1407    0.0000 O   0  0  0  0  0  0  0  0  0  0  0  0
    1.8810    2.6504    0.0000 O   0  0  0  0  0  0  0  0  0  0  0  0
  1  2  1  0  0  0  0
  2  3  2  0  0  0  0
  3  4  1  0  0  0  0
  4  5  1  0  0  0  0
  5  6  1  6  0  0  0
  5  7  1  0  0  0  0
  7  8  1  6  0  0  0
  8  9  2  0  0  0  0
  9 10  1  0  0  0  0
 10 11  1  0  0  0  0
 10 12  2  0  0  0  0
 12 13  1  0  0  0  0
 13 14  2  0  0  0  0
 14 15  1  0  0  0  0
 15 16  2  0  0  0  0
 16 17  1  0  0  0  0
 17 18  2  0  0  0  0
  2 18  1  0  0  0  0
 18 19  1  0  0  0  0
 19 20  1  6  0  0  0
 19 21  1  1  0  0  0
 21 22  1  0  0  0  0
 22 23  1  0  0  0  0
 22 24  2  0  0  0  0
 19 25  1  0  0  0  0
 16 25  1  0  0  0  0
 25 26  1  6  0  0  0
 26 27  1  0  0  0  0
 27 28  1  0  0  0  0
 28 29  1  0  0  0  0
 28 30  2  0  0  0  0
 14 31  1  0  0  0  0
 31 32  1  0  0  0  0
 31 33  1  0  0  0  0
 31 34  1  0  0  0  0
 12 34  1  0  0  0  0
 34 35  1  6  0  0  0
 35 36  1  0  0  0  0
 36 37  1  0  0  0  0
 37 38  1  0  0  0  0
 37 39  2  0  0  0  0
  9 40  1  0  0  0  0
 40 41  1  1  0  0  0
 40 42  1  6  0  0  0
 42 43  1  0  0  0  0
 43 44  1  0  0  0  0
 44 45  1  0  0  0  0
 44 46  2  0  0  0  0
 40 47  1  0  0  0  0
  7 47  1  0  0  0  0
 47 48  1  1  0  0  0
 48 49  1  0  0  0  0
 49 50  1  0  0  0  0
 49 51  2  0  0  0  0
  5 52  1  0  0  0  0
 52 53  1  6  0  0  0
 52 54  1  1  0  0  0
 54 55  1  0  0  0  0
 55 56  1  0  0  0  0
 55 57  2  0  0  0  0
 52 58  1  0  0  0  0
  3 58  1  0  0  0  0
 58 59  1  6  0  0  0
 59 60  1  0  0  0  0
 60 61  1  0  0  0  0
 61 62  1  0  0  0  0
 61 63  2  0  0  0  0
M  END
> <DRUGBANK_ID>
DB02460

> <DRUG_GROUPS>
experimental

> <GENERIC_NAME>
Hydrogenobyrinic Acid

> <CHEMICAL_FORMULA>
C45H60N4O14

> <MOLECULAR_WEIGHT>
880.9763

> <EXACT_MASS>
880.410602648

> <IUPAC_NAME>
3-[(1S,2S,3R,4R,8R,9R,14R,18S,19S)-9,14,18-tris(2-carboxyethyl)-3,8,19-tris(carboxymethyl)-2,3,6,8,13,13,16,18-octamethyl-20,21,22,23-tetraazapentacyclo[15.2.1.1^{2,5}.1^{7,10}.1^{12,15}]tricosa-5,7(22),10,12(21),15,17(20)-hexaen-4-yl]propanoic acid

> <IUPAC_TRADITIONAL_NAME>
3-[(1S,2S,3R,4R,8R,9R,14R,18S,19S)-9,14,18-tris(2-carboxyethyl)-3,8,19-tris(carboxymethyl)-2,3,6,8,13,13,16,18-octamethyl-20,21,22,23-tetraazapentacyclo[15.2.1.1^{2,5}.1^{7,10}.1^{12,15}]tricosa-5,7(22),10,12(21),15,17(20)-hexaen-4-yl]propanoic acid

> <INCHI_IDENTIFIER>
InChI=1S/C45H60N4O14/c1-21-36-24(10-13-30(52)53)41(3,4)28(47-36)18-27-23(9-12-29(50)51)43(6,19-34(60)61)39(46-27)22(2)37-25(11-14-31(54)55)44(7,20-35(62)63)45(8,49-37)40-26(17-33(58)59)42(5,38(21)48-40)16-15-32(56)57/h18,23-26,40,49H,9-17,19-20H2,1-8H3,(H,50,51)(H,52,53)(H,54,55)(H,56,57)(H,58,59)(H,60,61)(H,62,63)/b27-18-,36-21-,37-22-/t23-,24-,25-,26+,40-,42-,43+,44+,45+/m0/s1

> <INCHI_KEY>
InChIKey=MYMATQFDUQLSCD-WEIZKHOYSA-N

> <SMILES>
OC(=O)CC[C@H]1\C2=C\C3=N\C(=C(C)/C4=N[C@@H]([C@@H](CC(O)=O)[C@]4(C)CCC(O)=O)[C@@]4(C)N\C(=C(C)/C(=N2)[C@]1(C)CC(O)=O)[C@H](CCC(O)=O)[C@@]4(C)CC(O)=O)\[C@H](CCC(O)=O)C3(C)C

> <JCHEM_ACCEPTOR_COUNT>
18

> <JCHEM_DONOR_COUNT>
8

> <JCHEM_ACIDIC_PKA>
3.09

> <JCHEM_BASIC_PKA>
8.71

> <JCHEM_PHYSIOLOGICAL_CHARGE>
-4

> <ALOGPS_LOGP>
1.19

> <JCHEM_LOGP>
0.89

> <ALOGPS_LOGS>
-4.8

> <JCHEM_POLARIZABILITY>
91.62

> <JCHEM_POLAR_SURFACE_AREA>
310.21

> <JCHEM_REFRACTIVITY>
225.65

> <JCHEM_ROTATABLE_BOND_COUNT>
18

> <ALOGPS_SOLUBILITY>
1.43e-02 g/l __ 

$$$$
