
  Mrv0541 02231216272D          

 30 30  0  0  1  0            999 V2000
    0.7145   -5.3625    0.0000 O    0  0  0  0  0  0  0  0  0  0  0  0
    0.0000   -5.7750    0.0000 C    0  0  0  0  0  0  0  0  0  0  0  0
    0.0000   -6.6000    0.0000 C    0  0  1  0  0  0  0  0  0  0  0  0
   -0.7145   -7.0125    0.0000 N    0  0  0  0  0  0  0  0  0  0  0  0
   -1.4289   -6.6000    0.0000 C    0  0  0  0  0  0  0  0  0  0  0  0
   -1.4289   -5.7750    0.0000 O    0  0  0  0  0  0  0  0  0  0  0  0
   -2.1434   -7.0125    0.0000 C    0  0  0  0  0  0  0  0  0  0  0  0
   -2.8579   -6.6000    0.0000 C    0  0  0  0  0  0  0  0  0  0  0  0
   -3.5724   -7.0125    0.0000 N    0  0  0  0  0  0  0  0  0  0  0  0
   -4.2868   -6.6000    0.0000 C    0  0  0  0  0  0  0  0  0  0  0  0
   -4.2868   -5.7750    0.0000 O    0  0  0  0  0  0  0  0  0  0  0  0
   -5.0013   -7.0125    0.0000 C    0  0  0  0  0  0  0  0  0  0  0  0
   -5.7158   -6.6000    0.0000 Br   0  0  0  0  0  0  0  0  0  0  0  0
    0.7145   -7.0125    0.0000 C    0  0  0  0  0  0  0  0  0  0  0  0
    0.7145   -7.8375    0.0000 O    0  0  0  0  0  0  0  0  0  0  0  0
    1.4289   -6.6000    0.0000 N    0  0  0  0  0  0  0  0  0  0  0  0
    2.1434   -7.0125    0.0000 C    0  0  0  0  0  0  0  0  0  0  0  0
    2.8579   -6.6000    0.0000 C    0  0  0  0  0  0  0  0  0  0  0  0
    3.5724   -7.0125    0.0000 C    0  0  0  0  0  0  0  0  0  0  0  0
    4.2868   -6.6000    0.0000 C    0  0  0  0  0  0  0  0  0  0  0  0
    5.0013   -7.0125    0.0000 C    0  0  0  0  0  0  0  0  0  0  0  0
    5.0013   -7.8375    0.0000 C    0  0  0  0  0  0  0  0  0  0  0  0
    5.7158   -8.2500    0.0000 N    0  0  0  0  0  0  0  0  0  0  0  0
    6.4302   -7.8375    0.0000 C    0  0  0  0  0  0  0  0  0  0  0  0
    6.4302   -7.0125    0.0000 O    0  0  0  0  0  0  0  0  0  0  0  0
    7.1447   -8.2500    0.0000 C    0  0  0  0  0  0  0  0  0  0  0  0
    7.8592   -7.8375    0.0000 O    0  0  0  0  0  0  0  0  0  0  0  0
    7.1447   -9.0750    0.0000 O    0  0  0  0  0  0  0  0  0  0  0  0
    4.2868   -8.2500    0.0000 C    0  0  0  0  0  0  0  0  0  0  0  0
    3.5724   -7.8375    0.0000 C    0  0  0  0  0  0  0  0  0  0  0  0
  1  2  1  0  0  0  0
  2  3  1  0  0  0  0
  3  4  1  6  0  0  0
  4  5  1  0  0  0  0
  5  6  2  0  0  0  0
  5  7  1  0  0  0  0
  7  8  1  0  0  0  0
  8  9  1  0  0  0  0
  9 10  1  0  0  0  0
 10 11  2  0  0  0  0
 10 12  1  0  0  0  0
 12 13  1  0  0  0  0
  3 14  1  0  0  0  0
 14 15  2  0  0  0  0
 14 16  1  0  0  0  0
 16 17  1  0  0  0  0
 17 18  1  0  0  0  0
 18 19  1  0  0  0  0
 19 20  2  0  0  0  0
 20 21  1  0  0  0  0
 21 22  2  0  0  0  0
 22 23  1  0  0  0  0
 23 24  1  0  0  0  0
 24 25  2  0  0  0  0
 24 26  1  0  0  0  0
 26 27  1  0  0  0  0
 26 28  2  0  0  0  0
 22 29  1  0  0  0  0
 29 30  2  0  0  0  0
 19 30  1  0  0  0  0
M  END
> <DRUGBANK_ID>
DB02784

> <DRUG_GROUPS>
experimental

> <GENERIC_NAME>
N-[4-(2-{2-[3-(2-Bromo-Acetylamino)-Propionylamino]-3-Hydroxy-Propionylamino}-Ethyl)-Phenyl]-Oxalamic Acid

> <CHEMICAL_FORMULA>
C18H23BrN4O7

> <MOLECULAR_WEIGHT>
487.302

> <EXACT_MASS>
486.075011757

> <IUPAC_NAME>
[(4-{2-[(2R)-2-[3-(2-bromoacetamido)propanamido]-3-hydroxypropanamido]ethyl}phenyl)carbamoyl]formic acid

> <IUPAC_TRADITIONAL_NAME>
[(4-{2-[(2R)-2-[3-(2-bromoacetamido)propanamido]-3-hydroxypropanamido]ethyl}phenyl)carbamoyl]formic acid

> <INCHI_IDENTIFIER>
InChI=1S/C18H23BrN4O7/c19-9-15(26)20-8-6-14(25)23-13(10-24)16(27)21-7-5-11-1-3-12(4-2-11)22-17(28)18(29)30/h1-4,13,24H,5-10H2,(H,20,26)(H,21,27)(H,22,28)(H,23,25)(H,29,30)/t13-/m1/s1

> <INCHI_KEY>
InChIKey=IYAWTDCWUJJPHZ-CYBMUJFWSA-N

> <SMILES>
OC[C@@H](NC(=O)CCNC(=O)CBr)C(=O)NCCC1=CC=C(NC(=O)C(O)=O)C=C1

> <JCHEM_ACCEPTOR_COUNT>
7

> <JCHEM_DONOR_COUNT>
6

> <JCHEM_ACIDIC_PKA>
2.79

> <JCHEM_BASIC_PKA>
-2

> <JCHEM_PHYSIOLOGICAL_CHARGE>
-1

> <ALOGPS_LOGP>
-0.25

> <JCHEM_LOGP>
-1.3

> <ALOGPS_LOGS>
-4

> <JCHEM_POLARIZABILITY>
44.59

> <JCHEM_POLAR_SURFACE_AREA>
173.93

> <JCHEM_REFRACTIVITY>
109.47

> <JCHEM_ROTATABLE_BOND_COUNT>
12

> <ALOGPS_SOLUBILITY>
5.45e-02 g/l __ 

$$$$
