WAY
  Mrv0541 02231215562D          

 30 32  0  0  0  0            999 V2000
   -0.7795   -1.2126    0.0000 C   0  0  0  0  0  0  0  0  0  0  0  0
   -0.0650   -1.6251    0.0000 C   0  0  0  0  0  0  0  0  0  0  0  0
   -0.0650   -2.4501    0.0000 C   0  0  0  0  0  0  0  0  0  0  0  0
   -0.7795   -2.8626    0.0000 C   0  0  0  0  0  0  0  0  0  0  0  0
   -1.4939   -2.4501    0.0000 C   0  0  0  0  0  0  0  0  0  0  0  0
   -1.4939   -1.6251    0.0000 C   0  0  0  0  0  0  0  0  0  0  0  0
    0.6495   -1.2126    0.0000 C   0  0  0  0  0  0  0  0  0  0  0  0
    0.6495   -0.3876    0.0000 O   0  0  0  0  0  0  0  0  0  0  0  0
    1.3639   -1.6251    0.0000 N   0  0  0  0  0  0  0  0  0  0  0  0
    2.0784   -1.2126    0.0000 O   0  0  0  0  0  0  0  0  0  0  0  0
   -2.2084   -1.2126    0.0000 C   0  0  0  0  0  0  0  0  0  0  0  0
   -0.7795   -0.3876    0.0000 N   0  0  0  0  0  0  0  0  0  0  0  0
   -0.0650    0.0249    0.0000 S   0  0  0  0  0  0  0  0  0  0  0  0
   -1.4939    0.0249    0.0000 C   0  0  0  0  0  0  0  0  0  0  0  0
   -2.2084    2.0874    0.0000 C   0  0  0  0  0  0  0  0  0  0  0  0
   -1.4939    2.4999    0.0000 C   0  0  0  0  0  0  0  0  0  0  0  0
   -0.7795    2.0874    0.0000 N   0  0  0  0  0  0  0  0  0  0  0  0
   -0.7795    1.2624    0.0000 C   0  0  0  0  0  0  0  0  0  0  0  0
   -1.4939    0.8499    0.0000 C   0  0  0  0  0  0  0  0  0  0  0  0
   -2.2084    1.2624    0.0000 C   0  0  0  0  0  0  0  0  0  0  0  0
    0.6495    0.4374    0.0000 C   0  0  0  0  0  0  0  0  0  0  0  0
    0.6495    1.2624    0.0000 C   0  0  0  0  0  0  0  0  0  0  0  0
    1.3639    1.6749    0.0000 C   0  0  0  0  0  0  0  0  0  0  0  0
    2.0784    1.2624    0.0000 C   0  0  0  0  0  0  0  0  0  0  0  0
    2.0784    0.4374    0.0000 C   0  0  0  0  0  0  0  0  0  0  0  0
    1.3639    0.0249    0.0000 C   0  0  0  0  0  0  0  0  0  0  0  0
    2.7929    1.6749    0.0000 O   0  0  0  0  0  0  0  0  0  0  0  0
    2.7929    2.4999    0.0000 C   0  0  0  0  0  0  0  0  0  0  0  0
    0.3475   -0.6896    0.0000 O   0  0  0  0  0  0  0  0  0  0  0  0
   -0.4775    0.7394    0.0000 O   0  0  0  0  0  0  0  0  0  0  0  0
  1  2  2  0  0  0  0
  1  6  1  0  0  0  0
  1 12  1  0  0  0  0
  2  3  1  0  0  0  0
  2  7  1  0  0  0  0
  3  4  2  0  0  0  0
  4  5  1  0  0  0  0
  5  6  2  0  0  0  0
  6 11  1  0  0  0  0
  7  8  2  0  0  0  0
  7  9  1  0  0  0  0
  9 10  1  0  0  0  0
 12 13  1  0  0  0  0
 12 14  1  0  0  0  0
 13 21  1  0  0  0  0
 13 29  2  0  0  0  0
 13 30  2  0  0  0  0
 14 19  1  0  0  0  0
 15 16  2  0  0  0  0
 15 20  1  0  0  0  0
 16 17  1  0  0  0  0
 17 18  2  0  0  0  0
 18 19  1  0  0  0  0
 19 20  2  0  0  0  0
 21 22  2  0  0  0  0
 21 26  1  0  0  0  0
 22 23  1  0  0  0  0
 23 24  2  0  0  0  0
 24 25  1  0  0  0  0
 24 27  1  0  0  0  0
 25 26  2  0  0  0  0
 27 28  1  0  0  0  0
M  END
> <DRUGBANK_ID>
DB02071

> <DRUG_GROUPS>
experimental

> <GENERIC_NAME>
WAY-151693

> <SYNONYMS>


> <CHEMICAL_FORMULA>
C21H21N3O5S

> <MOLECULAR_WEIGHT>
427.474

> <EXACT_MASS>
427.120191487

> <IUPAC_NAME>
N-hydroxy-3-methyl-2-[N-(pyridin-3-ylmethyl)(4-methoxybenzene)sulfonamido]benzamide

> <IUPAC_TRADITIONAL_NAME>
N-hydroxy-3-methyl-2-[N-(pyridin-3-ylmethyl)(4-methoxybenzene)sulfonamido]benzamide

> <INCHI_IDENTIFIER>
InChI=1S/C21H21N3O5S/c1-15-5-3-7-19(21(25)23-26)20(15)24(14-16-6-4-12-22-13-16)30(27,28)18-10-8-17(29-2)9-11-18/h3-13,26H,14H2,1-2H3,(H,23,25)

> <INCHI_KEY>
InChIKey=AINJYWXKBKRQSX-UHFFFAOYSA-N

> <SMILES>
COC1=CC=C(C=C1)S(=O)(=O)N(CC1=CC=CN=C1)C1=C(C=CC=C1C)C(=O)NO

> <JCHEM_ACCEPTOR_COUNT>
6

> <JCHEM_DONOR_COUNT>
2

> <JCHEM_ACIDIC_PKA>
9.5

> <JCHEM_BASIC_PKA>
4.81

> <JCHEM_PHYSIOLOGICAL_CHARGE>
0

> <ALOGPS_LOGP>
2.43

> <JCHEM_LOGP>
2.39

> <ALOGPS_LOGS>
-4.5

> <JCHEM_POLARIZABILITY>
42.25

> <JCHEM_POLAR_SURFACE_AREA>
108.83

> <JCHEM_REFRACTIVITY>
112.59

> <JCHEM_ROTATABLE_BOND_COUNT>
6

> <ALOGPS_SOLUBILITY>
1.24e-02 g/l __ 

$$$$
