HFA
  Mrv0541 02231216142D          

 13 13  0  0  0  0            999 V2000
   -0.1575    1.2268    0.0000 O   0  0  0  0  0  0  0  0  0  0  0  0
    0.5569    0.8143    0.0000 C   0  0  2  0  0  0  0  0  0  0  0  0
    1.2714    1.2268    0.0000 C   0  0  0  0  0  0  0  0  0  0  0  0
    1.2714    2.0518    0.0000 O   0  0  0  0  0  0  0  0  0  0  0  0
    0.5569   -0.0107    0.0000 C   0  0  0  0  0  0  0  0  0  0  0  0
   -0.1575   -0.4232    0.0000 C   0  0  0  0  0  0  0  0  0  0  0  0
   -0.1575   -1.2482    0.0000 C   0  0  0  0  0  0  0  0  0  0  0  0
   -0.8720   -0.0107    0.0000 C   0  0  0  0  0  0  0  0  0  0  0  0
   -0.8720   -1.6607    0.0000 C   0  0  0  0  0  0  0  0  0  0  0  0
   -1.5865   -0.4232    0.0000 C   0  0  0  0  0  0  0  0  0  0  0  0
   -1.5865   -1.2482    0.0000 C   0  0  0  0  0  0  0  0  0  0  0  0
    1.9859    0.8143    0.0000 O   0  0  0  0  0  0  0  0  0  0  0  0
    0.5569    1.3983    0.0000 H   0  0  0  0  0  0  0  0  0  0  0  0
  2  1  1  6  0  0  0
  2  3  1  0  0  0  0
  2  5  1  0  0  0  0
  2 13  1  1  0  0  0
  3  4  2  0  0  0  0
  3 12  1  0  0  0  0
  5  6  1  0  0  0  0
  6  7  2  0  0  0  0
  6  8  1  0  0  0  0
  7  9  1  0  0  0  0
  8 10  2  0  0  0  0
  9 11  2  0  0  0  0
 10 11  1  0  0  0  0
M  END
> <DRUGBANK_ID>
DB02494

> <DRUG_GROUPS>
experimental

> <GENERIC_NAME>
Alpha-Hydroxy-Beta-Phenyl-Propionic Acid

> <CHEMICAL_FORMULA>
C9H10O3

> <MOLECULAR_WEIGHT>
166.1739

> <EXACT_MASS>
166.062994186

> <IUPAC_NAME>
(2S)-2-hydroxy-3-phenylpropanoic acid

> <IUPAC_TRADITIONAL_NAME>
(S)-3-phenyllactic acid

> <INCHI_IDENTIFIER>
InChI=1S/C9H10O3/c10-8(9(11)12)6-7-4-2-1-3-5-7/h1-5,8,10H,6H2,(H,11,12)/t8-/m0/s1

> <INCHI_KEY>
InChIKey=VOXXWSYKYCBWHO-QMMMGPOBSA-N

> <SMILES>
[H][C@](O)(CC1=CC=CC=C1)C(O)=O

> <JCHEM_ACCEPTOR_COUNT>
3

> <JCHEM_DONOR_COUNT>
2

> <JCHEM_ACIDIC_PKA>
4.02

> <JCHEM_BASIC_PKA>
-3.8

> <JCHEM_PHYSIOLOGICAL_CHARGE>
-1

> <ALOGPS_LOGP>
0.84

> <JCHEM_LOGP>
1.18

> <ALOGPS_LOGS>
-1.2

> <JCHEM_POLARIZABILITY>
16.7

> <JCHEM_POLAR_SURFACE_AREA>
57.53

> <JCHEM_REFRACTIVITY>
43.46

> <JCHEM_ROTATABLE_BOND_COUNT>
3

> <ALOGPS_SOLUBILITY>
9.80e+00 g/l __ 

$$$$
