
  Mrv0541 02231215562D          

 23 25  0  0  1  0            999 V2000
    1.1387   -4.2695    0.0000 O   0  0  0  0  0  0  0  0  0  0  0  0
    0.8838   -3.4849    0.0000 C   0  0  1  0  0  0  0  0  0  0  0  0
    0.0992   -3.2299    0.0000 C   0  0  2  0  0  0  0  0  0  0  0  0
   -0.5683   -3.7149    0.0000 C   0  0  0  0  0  0  0  0  0  0  0  0
   -0.4820   -4.5353    0.0000 O   0  0  0  0  0  0  0  0  0  0  0  0
   -1.1495   -5.0203    0.0000 P   0  0  0  0  0  0  0  0  0  0  0  0
   -1.8169   -5.5052    0.0000 O   0  0  0  0  0  0  0  0  0  0  0  0
   -0.6646   -5.6877    0.0000 O   0  0  0  0  0  0  0  0  0  0  0  0
   -1.6344   -4.3528    0.0000 O   0  0  0  0  0  0  0  0  0  0  0  0
    0.0992   -2.4049    0.0000 N   0  0  0  0  0  0  0  0  0  0  0  0
    0.8838   -2.1500    0.0000 C   0  0  2  0  0  0  0  0  0  0  0  0
    1.3687   -2.8174    0.0000 C   0  0  2  0  0  0  0  0  0  0  0  0
    2.1937   -2.8174    0.0000 O   0  0  0  0  0  0  0  0  0  0  0  0
    1.1387   -1.3654    0.0000 C   0  0  0  0  0  0  0  0  0  0  0  0
    0.6538   -0.6979    0.0000 C   0  0  0  0  0  0  0  0  0  0  0  0
    1.1387   -0.0305    0.0000 N   0  0  0  0  0  0  0  0  0  0  0  0
    1.9233   -0.2854    0.0000 C   0  0  0  0  0  0  0  0  0  0  0  0
    2.6378    0.1271    0.0000 C   0  0  0  0  0  0  0  0  0  0  0  0
    2.6378    0.9521    0.0000 O   0  0  0  0  0  0  0  0  0  0  0  0
    3.3523   -0.2854    0.0000 N   0  0  0  0  0  0  0  0  0  0  0  0
    3.3523   -1.1104    0.0000 C   0  0  0  0  0  0  0  0  0  0  0  0
    2.6378   -1.5229    0.0000 N   0  0  0  0  0  0  0  0  0  0  0  0
    1.9233   -1.1104    0.0000 C   0  0  0  0  0  0  0  0  0  0  0  0
  2  1  1  1  0  0  0
  2  3  1  0  0  0  0
  3  4  1  6  0  0  0
  4  5  1  0  0  0  0
  5  6  1  0  0  0  0
  6  7  1  0  0  0  0
  6  8  1  0  0  0  0
  6  9  2  0  0  0  0
  3 10  1  0  0  0  0
 10 11  1  0  0  0  0
 11 12  1  0  0  0  0
  2 12  1  0  0  0  0
 12 13  1  6  0  0  0
 11 14  1  1  0  0  0
 14 15  4  0  0  0  0
 15 16  4  0  0  0  0
 16 17  4  0  0  0  0
 17 18  1  0  0  0  0
 18 19  2  0  0  0  0
 18 20  1  0  0  0  0
 20 21  1  0  0  0  0
 21 22  2  0  0  0  0
 22 23  1  0  0  0  0
 14 23  4  0  0  0  0
 17 23  4  0  0  0  0
M  END
> <DRUGBANK_ID>
DB02075

> <DRUG_GROUPS>
experimental

> <GENERIC_NAME>
(1s)-1(9-Deazahypoxanthin-9yl)1,4-Dideoxy-1,4-Imino-D-Ribitol-5-Phosphate

> <CHEMICAL_FORMULA>
C11H14N4O7P

> <MOLECULAR_WEIGHT>
345.2252

> <EXACT_MASS>
345.060010334

> <IUPAC_NAME>
{[(2S,3S,4S,5S)-3,4-dihydroxy-5-{4-oxopyrrolo[3,2-d]pyrimidin-7-yl}pyrrolidin-2-yl]methoxy}phosphonic acid

> <IUPAC_TRADITIONAL_NAME>
[(2S,3S,4S,5S)-3,4-dihydroxy-5-{4-oxopyrrolo[3,2-d]pyrimidin-7-yl}pyrrolidin-2-yl]methoxyphosphonic acid

> <INCHI_IDENTIFIER>
InChI=1S/C11H14N4O7P/c16-9-5(2-22-23(19,20)21)15-7(10(9)17)4-1-12-8-6(4)13-3-14-11(8)18/h1,3,5,7,9-10,15-17H,2H2,(H,13,14,18)(H2,19,20,21)/t5-,7-,9-,10-/m0/s1

> <INCHI_KEY>
InChIKey=BNBLIPPJYHOAER-YNAXYJCJSA-N

> <SMILES>
O[C@H]1[C@H](COP(O)(O)=O)N[C@H]([C@@H]1O)c1cnc2c1N=CNC2=O

> <JCHEM_ACCEPTOR_COUNT>
9

> <JCHEM_DONOR_COUNT>
6

> <JCHEM_ACIDIC_PKA>
1.5

> <JCHEM_BASIC_PKA>
8.68

> <JCHEM_PHYSIOLOGICAL_CHARGE>
-1

> <ALOGPS_LOGP>
-1.9

> <JCHEM_LOGP>
-4.4

> <ALOGPS_LOGS>
-1.8

> <JCHEM_POLARIZABILITY>
30.21

> <JCHEM_POLAR_SURFACE_AREA>
177.89

> <JCHEM_REFRACTIVITY>
72.38

> <JCHEM_ROTATABLE_BOND_COUNT>
4

> <ALOGPS_SOLUBILITY>
5.19e+00 g/l __ 

$$$$
