
  Mrv0541 02231216262D          

  5  5  0  0  0  0            999 V2000
    1.2352    0.6294    0.0000 N   0  0  0  0  0  0  0  0  0  0  0  0
    0.9803   -0.1553    0.0000 C   0  0  0  0  0  0  0  0  0  0  0  0
    0.1553   -0.1553    0.0000 C   0  0  0  0  0  0  0  0  0  0  0  0
   -0.0997    0.6294    0.0000 C   0  0  0  0  0  0  0  0  0  0  0  0
    0.5678    1.1143    0.0000 N   0  0  0  0  0  0  0  0  0  0  0  0
  1  2  1  0  0  0  0
  2  3  2  0  0  0  0
  3  4  1  0  0  0  0
  4  5  2  0  0  0  0
  1  5  1  0  0  0  0
M  END
> <DRUGBANK_ID>
DB02757

> <DRUG_GROUPS>
experimental

> <GENERIC_NAME>
Pyrazole

> <SYNONYMS>


> <CHEMICAL_FORMULA>
C3H4N2

> <MOLECULAR_WEIGHT>
68.0773

> <EXACT_MASS>
68.037448138

> <IUPAC_NAME>
1H-pyrazole

> <IUPAC_TRADITIONAL_NAME>
pyrazole

> <INCHI_IDENTIFIER>
InChI=1S/C3H4N2/c1-2-4-5-3-1/h1-3H,(H,4,5)

> <INCHI_KEY>
InChIKey=WTKZEGDFNFYCGP-UHFFFAOYSA-N

> <SMILES>
N1C=CC=N1

> <JCHEM_ACCEPTOR_COUNT>
1

> <JCHEM_DONOR_COUNT>
1

> <JCHEM_ACIDIC_PKA>
14.63

> <JCHEM_BASIC_PKA>
2.17

> <JCHEM_PHYSIOLOGICAL_CHARGE>
0

> <ALOGPS_LOGP>
0.03

> <JCHEM_LOGP>
0.28

> <ALOGPS_LOGS>
0.85

> <JCHEM_POLARIZABILITY>
6.53

> <JCHEM_POLAR_SURFACE_AREA>
28.68

> <JCHEM_REFRACTIVITY>
19.75

> <JCHEM_ROTATABLE_BOND_COUNT>
0

> <ALOGPS_SOLUBILITY>
4.84e+02 g/l __ 

$$$$
