NBF
  Mrv0541 02231216302D          

 20 21  0  0  0  0            999 V2000
   -3.0410   -0.0416    0.0000 C   0  0  0  0  0  0  0  0  0  0  0  0
   -2.3265    0.3709    0.0000 C   0  0  0  0  0  0  0  0  0  0  0  0
   -1.6120   -0.0416    0.0000 O   0  0  0  0  0  0  0  0  0  0  0  0
   -0.8975    0.3709    0.0000 C   0  0  0  0  0  0  0  0  0  0  0  0
   -0.1831   -0.0416    0.0000 C   0  0  0  0  0  0  0  0  0  0  0  0
   -0.1831   -0.8666    0.0000 C   0  0  0  0  0  0  0  0  0  0  0  0
   -0.8975   -1.2791    0.0000 O   0  0  0  0  0  0  0  0  0  0  0  0
    0.5314   -1.2791    0.0000 N   0  0  0  0  0  0  0  0  0  0  0  0
    1.2459   -0.8666    0.0000 C   0  0  0  0  0  0  0  0  0  0  0  0
    1.9603   -1.2791    0.0000 B   0  0  0  0  0  0  0  0  0  0  0  0
    2.6748   -0.8666    0.0000 O   0  0  0  0  0  0  0  0  0  0  0  0
    1.9603   -2.1041    0.0000 O   0  0  0  0  0  0  0  0  0  0  0  0
    0.5314    0.3709    0.0000 C   0  0  0  0  0  0  0  0  0  0  0  0
    0.5314    1.1959    0.0000 C   0  0  0  0  0  0  0  0  0  0  0  0
    1.2459    1.6084    0.0000 C   0  0  0  0  0  0  0  0  0  0  0  0
    1.9603    1.1959    0.0000 C   0  0  0  0  0  0  0  0  0  0  0  0
    1.9603    0.3709    0.0000 C   0  0  0  0  0  0  0  0  0  0  0  0
    1.2459   -0.0416    0.0000 C   0  0  0  0  0  0  0  0  0  0  0  0
   -0.1831    1.6084    0.0000 C   0  0  0  0  0  0  0  0  0  0  0  0
   -0.8975    1.1959    0.0000 C   0  0  0  0  0  0  0  0  0  0  0  0
  1  2  1  0  0  0  0
  2  3  1  0  0  0  0
  3  4  1  0  0  0  0
  4  5  2  0  0  0  0
  4 20  1  0  0  0  0
  5  6  1  0  0  0  0
  5 13  1  0  0  0  0
  6  7  2  0  0  0  0
  6  8  1  0  0  0  0
  8  9  1  0  0  0  0
  9 10  1  0  0  0  0
 10 11  1  0  0  0  0
 10 12  1  0  0  0  0
 13 14  2  0  0  0  0
 13 18  1  0  0  0  0
 14 15  1  0  0  0  0
 14 19  1  0  0  0  0
 15 16  2  0  0  0  0
 16 17  1  0  0  0  0
 17 18  2  0  0  0  0
 19 20  2  0  0  0  0
M  END
> <DRUGBANK_ID>
DB02841

> <DRUG_GROUPS>
experimental

> <GENERIC_NAME>
[(2-Ethoxy-1-Naphthoyl)Amino]Methylboronic Acid

> <CHEMICAL_FORMULA>
C14H16BNO4

> <MOLECULAR_WEIGHT>
273.092

> <EXACT_MASS>
273.117238471

> <IUPAC_NAME>
{[(2-ethoxynaphthalen-1-yl)formamido]methyl}boronic acid

> <IUPAC_TRADITIONAL_NAME>
[(2-ethoxynaphthalen-1-yl)formamido]methylboronic acid

> <INCHI_IDENTIFIER>
InChI=1S/C14H16BNO4/c1-2-20-12-8-7-10-5-3-4-6-11(10)13(12)14(17)16-9-15(18)19/h3-8,18-19H,2,9H2,1H3,(H,16,17)

> <INCHI_KEY>
InChIKey=VGXJNGVFESCMME-UHFFFAOYSA-N

> <SMILES>
CCOC1=C(C(=O)NCB(O)O)C2=C(C=CC=C2)C=C1

> <JCHEM_ACCEPTOR_COUNT>
4

> <JCHEM_DONOR_COUNT>
3

> <JCHEM_ACIDIC_PKA>
14.35

> <JCHEM_BASIC_PKA>
-1.3

> <JCHEM_PHYSIOLOGICAL_CHARGE>
0

> <ALOGPS_LOGP>
1.45

> <JCHEM_LOGP>
2.21

> <ALOGPS_LOGS>
-3.5

> <JCHEM_POLARIZABILITY>
28.87

> <JCHEM_POLAR_SURFACE_AREA>
78.79

> <JCHEM_REFRACTIVITY>
71.55

> <JCHEM_ROTATABLE_BOND_COUNT>
5

> <ALOGPS_SOLUBILITY>
8.15e-02 g/l __ 

$$$$
