106
  Mrv0541 02231216362D          

 23 25  0  0  0  0            999 V2000
    0.7292   -2.7239    0.0000 N    0  0  0  0  0  0  0  0  0  0  0  0
    0.2443   -2.0564    0.0000 C    0  0  0  0  0  0  0  0  0  0  0  0
    0.7292   -1.3890    0.0000 C    0  0  0  0  0  0  0  0  0  0  0  0
    2.2283   -1.2314    0.0000 C    0  0  0  0  0  0  0  0  0  0  0  0
    2.9428   -1.6439    0.0000 C    0  0  0  0  0  0  0  0  0  0  0  0
    2.9428   -2.4689    0.0000 C    0  0  0  0  0  0  0  0  0  0  0  0
    2.2283   -2.8814    0.0000 C    0  0  0  0  0  0  0  0  0  0  0  0
    1.5138   -2.4689    0.0000 C    0  0  0  0  0  0  0  0  0  0  0  0
    1.5138   -1.6439    0.0000 C    0  0  0  0  0  0  0  0  0  0  0  0
   -0.5807   -2.0564    0.0000 O    0  0  0  0  0  0  0  0  0  0  0  0
    0.4743   -0.6044    0.0000 N    0  0  0  0  0  0  0  0  0  0  0  0
    3.6572   -1.2314    0.0000 Br   0  0  0  0  0  0  0  0  0  0  0  0
   -0.3327   -0.4328    0.0000 N    0  0  0  0  0  0  0  0  0  0  0  0
   -0.5876    0.3518    0.0000 C    0  0  0  0  0  0  0  0  0  0  0  0
   -1.3946    0.5233    0.0000 C    0  0  0  0  0  0  0  0  0  0  0  0
   -1.6496    1.3079    0.0000 C    0  0  0  0  0  0  0  0  0  0  0  0
   -1.0975    1.9210    0.0000 C    0  0  0  0  0  0  0  0  0  0  0  0
   -0.2906    1.7495    0.0000 C    0  0  0  0  0  0  0  0  0  0  0  0
   -0.0356    0.9649    0.0000 C    0  0  0  0  0  0  0  0  0  0  0  0
   -1.3525    2.7057    0.0000 S    0  0  0  0  0  0  0  0  0  0  0  0
   -1.6074    3.4903    0.0000 O    0  0  0  0  0  0  0  0  0  0  0  0
   -0.5678    2.9606    0.0000 O    0  0  0  0  0  0  0  0  0  0  0  0
   -2.1371    2.4507    0.0000 N    0  0  0  0  0  0  0  0  0  0  0  0
  1  2  1  0  0  0  0
  1  8  2  0  0  0  0
  2  3  1  0  0  0  0
  2 10  2  0  0  0  0
  3  9  2  0  0  0  0
  3 11  1  0  0  0  0
  4  5  2  0  0  0  0
  4  9  1  0  0  0  0
  5  6  1  0  0  0  0
  5 12  1  0  0  0  0
  6  7  2  0  0  0  0
  7  8  1  0  0  0  0
  8  9  1  0  0  0  0
 11 13  2  0  0  0  0
 13 14  1  0  0  0  0
 14 15  2  0  0  0  0
 14 19  1  0  0  0  0
 15 16  1  0  0  0  0
 16 17  2  0  0  0  0
 17 18  1  0  0  0  0
 17 20  1  0  0  0  0
 18 19  2  0  0  0  0
 20 21  2  0  0  0  0
 20 22  2  0  0  0  0
 20 23  1  0  0  0  0
M  END
> <DRUGBANK_ID>
DB02973

> <DRUG_GROUPS>
experimental

> <GENERIC_NAME>
4-(5-Bromo-2-Oxo-2h-Indol-3-Ylazo)-Benzenesulfonamide

> <CHEMICAL_FORMULA>
C14H9BrN4O3S

> <MOLECULAR_WEIGHT>
393.215

> <EXACT_MASS>
391.957873511

> <IUPAC_NAME>
4-[(E)-2-(5-bromo-2-oxo-2H-indol-3-yl)diazen-1-yl]benzene-1-sulfonamide

> <IUPAC_TRADITIONAL_NAME>
4-[(E)-2-(5-bromo-2-oxoindol-3-yl)diazen-1-yl]benzenesulfonamide

> <INCHI_IDENTIFIER>
InChI=1S/C14H9BrN4O3S/c15-8-1-6-12-11(7-8)13(14(20)17-12)19-18-9-2-4-10(5-3-9)23(16,21)22/h1-7H,(H2,16,21,22)/b19-18+

> <INCHI_KEY>
InChIKey=BWTHJLODYBOEIY-VHEBQXMUSA-N

> <SMILES>
NS(=O)(=O)C1=CC=C(C=C1)\N=N\C1=C2C=C(Br)C=CC2=NC1=O

> <JCHEM_ACCEPTOR_COUNT>
6

> <JCHEM_DONOR_COUNT>
1

> <JCHEM_ACIDIC_PKA>
10.03

> <JCHEM_BASIC_PKA>
-1

> <JCHEM_PHYSIOLOGICAL_CHARGE>
0

> <ALOGPS_LOGP>
3

> <JCHEM_LOGP>
1.54

> <ALOGPS_LOGS>
-4.2

> <JCHEM_POLARIZABILITY>
34.31

> <JCHEM_POLAR_SURFACE_AREA>
114.31

> <JCHEM_REFRACTIVITY>
92.91

> <JCHEM_ROTATABLE_BOND_COUNT>
3

> <ALOGPS_SOLUBILITY>
2.40e-02 g/l __ 

$$$$
