
  Mrv0541 02231215582D          

  8  7  0  0  0  0            999 V2000
    1.9520    1.9520    0.0000 O   0  0  0  0  0  0  0  0  0  0  0  0
    1.9520    1.1270    0.0000 N   0  0  0  0  0  0  0  0  0  0  0  0
    1.2375    0.7145    0.0000 C   0  0  0  0  0  0  0  0  0  0  0  0
    0.5230    1.1270    0.0000 C   0  0  0  0  0  0  0  0  0  0  0  0
   -0.1914    0.7145    0.0000 O   0  0  0  0  0  0  0  0  0  0  0  0
    0.5230    1.9520    0.0000 O   0  0  0  0  0  0  0  0  0  0  0  0
    2.6664    0.7145    0.0000 C   0  0  0  0  0  0  0  0  0  0  0  0
    3.3809    1.1270    0.0000 O   0  0  0  0  0  0  0  0  0  0  0  0
  1  2  1  0  0  0  0
  2  3  1  0  0  0  0
  3  4  1  0  0  0  0
  4  5  1  0  0  0  0
  4  6  2  0  0  0  0
  2  7  1  0  0  0  0
  7  8  2  0  0  0  0
M  END
> <DRUGBANK_ID>
DB02109

> <DRUG_GROUPS>
experimental

> <GENERIC_NAME>
Hadacidin

> <CHEMICAL_FORMULA>
C3H5NO4

> <MOLECULAR_WEIGHT>
119.0761

> <EXACT_MASS>
119.021857653

> <IUPAC_NAME>
2-(N-hydroxyformamido)acetic acid

> <IUPAC_TRADITIONAL_NAME>
hadacidin

> <INCHI_IDENTIFIER>
InChI=1S/C3H5NO4/c5-2-4(8)1-3(6)7/h2,8H,1H2,(H,6,7)

> <INCHI_KEY>
InChIKey=URJHVPKUWOUENU-UHFFFAOYSA-N

> <SMILES>
ON(CC(O)=O)C=O

> <JCHEM_ACCEPTOR_COUNT>
4

> <JCHEM_DONOR_COUNT>
2

> <JCHEM_ACIDIC_PKA>
3.28

> <JCHEM_BASIC_PKA>
-5.9

> <JCHEM_PHYSIOLOGICAL_CHARGE>
-1

> <ALOGPS_LOGP>
-0.97

> <JCHEM_LOGP>
-1.4

> <ALOGPS_LOGS>
-0.38

> <JCHEM_POLARIZABILITY>
9.37

> <JCHEM_POLAR_SURFACE_AREA>
77.84

> <JCHEM_REFRACTIVITY>
22.72

> <JCHEM_ROTATABLE_BOND_COUNT>
2

> <ALOGPS_SOLUBILITY>
5.00e+01 g/l __ 

$$$$
