
  Mrv0541 02231216002D          

  4  3  0  0  0  0            999 V2000
    1.2375    0.7145    0.0000 O    0  0  0  0  0  0  0  0  0  0  0  0
    0.8250    0.0000    0.0000 Zn   0  5  0  0  0  0  0  0  0  0  0  0
    1.2375   -0.7145    0.0000 O    0  0  0  0  0  0  0  0  0  0  0  0
    0.0000    0.0000    0.0000 O    0  0  0  0  0  0  0  0  0  0  0  0
  1  2  1  0  0  0  0
  2  3  1  0  0  0  0
  2  4  1  0  0  0  0
M  END
> <DRUGBANK_ID>
DB02165

> <DRUG_GROUPS>
experimental

> <GENERIC_NAME>
Zinc Trihydroxide

> <CHEMICAL_FORMULA>
H3O3Zn

> <MOLECULAR_WEIGHT>
116.431

> <EXACT_MASS>
114.93736554

> <IUPAC_NAME>
trihydroxyzincuide

> <IUPAC_TRADITIONAL_NAME>
zinc trihydroxide

> <INCHI_IDENTIFIER>
InChI=1S/3H2O.Zn/h3*1H2;/q;;;+2/p-3

> <INCHI_KEY>
InChIKey=FTXMHASAYZWVCS-UHFFFAOYSA-K

> <SMILES>
O[Zn-](O)O

> <JCHEM_ACCEPTOR_COUNT>
3

> <JCHEM_DONOR_COUNT>
3

> <JCHEM_BASIC_PKA>
0.2

> <JCHEM_PHYSIOLOGICAL_CHARGE>
-1

> <JCHEM_LOGP>
-1.5

> <JCHEM_POLARIZABILITY>
6.07

> <JCHEM_POLAR_SURFACE_AREA>
60.69

> <JCHEM_REFRACTIVITY>
7.69

> <JCHEM_ROTATABLE_BOND_COUNT>
0 __ 

$$$$
