
  Mrv0541 02231216302D          

  8  8  0  0  0  0            999 V2000
   -0.1467    2.3518    0.0000 O   0  5  0  0  0  0  0  0  0  0  0  0
    0.5678    1.9393    0.0000 C   0  0  0  0  0  0  0  0  0  0  0  0
    1.2822    2.3518    0.0000 O   0  0  0  0  0  0  0  0  0  0  0  0
    0.5678    1.1143    0.0000 C   0  0  0  0  0  0  0  0  0  0  0  0
    1.2352    0.6294    0.0000 N   0  3  0  0  0  0  0  0  0  0  0  0
    0.9803   -0.1553    0.0000 C   0  0  0  0  0  0  0  0  0  0  0  0
    0.1553   -0.1553    0.0000 C   0  0  0  0  0  0  0  0  0  0  0  0
   -0.0997    0.6294    0.0000 C   0  0  0  0  0  0  0  0  0  0  0  0
  1  2  1  0  0  0  0
  2  3  2  0  0  0  0
  2  4  1  0  0  0  0
  4  5  2  0  0  0  0
  5  6  1  0  0  0  0
  6  7  1  0  0  0  0
  7  8  1  0  0  0  0
  4  8  1  0  0  0  0
M  END
> <DRUGBANK_ID>
DB02838

> <DRUG_GROUPS>
experimental

> <GENERIC_NAME>
3,4-Dihydro-2h-Pyrrolium-5-Carboxylate

> <CHEMICAL_FORMULA>
C5H7NO2

> <MOLECULAR_WEIGHT>
113.1146

> <EXACT_MASS>
113.047678473

> <IUPAC_NAME>
3,4-dihydro-2H-pyrrol-1-ium-5-carboxylate

> <IUPAC_TRADITIONAL_NAME>
4,5-dihydro-3H-pyrrol-1-ium-2-carboxylate

> <INCHI_IDENTIFIER>
InChI=1S/C5H7NO2/c7-5(8)4-2-1-3-6-4/h1-3H2,(H,7,8)

> <INCHI_KEY>
InChIKey=RHTAIKJZSXNELN-UHFFFAOYSA-N

> <SMILES>
[O-]C(=O)C1=[NH+]CCC1

> <JCHEM_ACCEPTOR_COUNT>
2

> <JCHEM_DONOR_COUNT>
1

> <JCHEM_ACIDIC_PKA>
3.93

> <JCHEM_BASIC_PKA>
1.72

> <JCHEM_PHYSIOLOGICAL_CHARGE>
-1

> <ALOGPS_LOGP>
0.38

> <JCHEM_LOGP>
0.53

> <ALOGPS_LOGS>
-0.85

> <JCHEM_POLARIZABILITY>
10.81

> <JCHEM_POLAR_SURFACE_AREA>
54.1

> <JCHEM_REFRACTIVITY>
49.89

> <JCHEM_ROTATABLE_BOND_COUNT>
1

> <ALOGPS_SOLUBILITY>
2.36e+01 g/l __ 

$$$$
