
  Mrv0541 02231216232D          

 29 31  0  0  1  0            999 V2000
   -6.4907    3.4622    0.0000 N   0  0  0  0  0  0  0  0  0  0  0  0
   -6.4907    2.6372    0.0000 C   0  0  2  0  0  0  0  0  0  0  0  0
   -7.2052    2.2247    0.0000 C   0  0  0  0  0  0  0  0  0  0  0  0
   -7.9196    2.6372    0.0000 S   0  0  0  0  0  0  0  0  0  0  0  0
   -5.7762    2.2247    0.0000 C   0  0  0  0  0  0  0  0  0  0  0  0
   -5.7762    1.3997    0.0000 O   0  0  0  0  0  0  0  0  0  0  0  0
   -5.0617    2.6372    0.0000 N   0  0  0  0  0  0  0  0  0  0  0  0
   -4.3473    2.2247    0.0000 S   0  0  0  0  0  0  0  0  0  0  0  0
   -4.7598    1.5103    0.0000 O   0  0  0  0  0  0  0  0  0  0  0  0
   -3.9348    2.9392    0.0000 O   0  0  0  0  0  0  0  0  0  0  0  0
   -3.6328    1.8122    0.0000 O   0  0  0  0  0  0  0  0  0  0  0  0
   -2.9183    2.2247    0.0000 C   0  0  0  0  0  0  0  0  0  0  0  0
   -2.2039    1.8122    0.0000 C   0  0  2  0  0  0  0  0  0  0  0  0
   -1.4502    2.1478    0.0000 O   0  0  0  0  0  0  0  0  0  0  0  0
   -0.8981    1.5347    0.0000 C   0  0  2  0  0  0  0  0  0  0  0  0
   -1.3106    0.8202    0.0000 C   0  0  2  0  0  0  0  0  0  0  0  0
   -0.9751    0.0665    0.0000 O   0  0  0  0  0  0  0  0  0  0  0  0
   -2.1176    0.9917    0.0000 C   0  0  1  0  0  0  0  0  0  0  0  0
   -2.7307    0.4397    0.0000 O   0  0  0  0  0  0  0  0  0  0  0  0
   -0.0777    1.6209    0.0000 N   0  0  0  0  0  0  0  0  0  0  0  0
    0.4744    1.0078    0.0000 C   0  0  0  0  0  0  0  0  0  0  0  0
    1.2280    1.3434    0.0000 N   0  0  0  0  0  0  0  0  0  0  0  0
    1.1418    2.1639    0.0000 C   0  0  0  0  0  0  0  0  0  0  0  0
    0.3348    2.3354    0.0000 C   0  0  0  0  0  0  0  0  0  0  0  0
    0.0799    3.1200    0.0000 N   0  0  0  0  0  0  0  0  0  0  0  0
    0.6319    3.7331    0.0000 C   0  0  0  0  0  0  0  0  0  0  0  0
    1.4389    3.5616    0.0000 N   0  0  0  0  0  0  0  0  0  0  0  0
    1.6938    2.7770    0.0000 C   0  0  0  0  0  0  0  0  0  0  0  0
    2.5008    2.6054    0.0000 N   0  0  0  0  0  0  0  0  0  0  0  0
  2  1  1  1  0  0  0
  2  3  1  0  0  0  0
  3  4  1  0  0  0  0
  2  5  1  0  0  0  0
  5  6  2  0  0  0  0
  5  7  1  0  0  0  0
  7  8  1  0  0  0  0
  8  9  2  0  0  0  0
  8 10  2  0  0  0  0
  8 11  1  0  0  0  0
 11 12  1  0  0  0  0
 13 12  1  6  0  0  0
 13 14  1  0  0  0  0
 14 15  1  0  0  0  0
 15 16  1  0  0  0  0
 16 17  1  6  0  0  0
 16 18  1  0  0  0  0
 13 18  1  0  0  0  0
 18 19  1  1  0  0  0
 15 20  1  1  0  0  0
 20 21  1  0  0  0  0
 21 22  2  0  0  0  0
 22 23  1  0  0  0  0
 23 24  2  0  0  0  0
 20 24  1  0  0  0  0
 24 25  1  0  0  0  0
 25 26  2  0  0  0  0
 26 27  1  0  0  0  0
 27 28  2  0  0  0  0
 23 28  1  0  0  0  0
 28 29  1  0  0  0  0
M  END
> <DRUGBANK_ID>
DB02684

> <DRUG_GROUPS>
experimental

> <GENERIC_NAME>
5'-O-(N-(L-Cysteinyl)-Sulfamoyl)Adenosine

> <CHEMICAL_FORMULA>
C13H19N7O7S2

> <MOLECULAR_WEIGHT>
449.463

> <EXACT_MASS>
449.078737377

> <IUPAC_NAME>
(2S)-2-amino-1-[({[(2S,3R,4R,5R)-5-(6-amino-9H-purin-9-yl)-3,4-dihydroxyoxolan-2-yl]methoxy}sulfonyl)amino]-3-sulfanylpropan-1-one

> <IUPAC_TRADITIONAL_NAME>
(2S)-2-amino-1-({[(2S,3R,4R,5R)-5-(6-aminopurin-9-yl)-3,4-dihydroxyoxolan-2-yl]methoxysulfonyl}amino)-3-sulfanylpropan-1-one

> <INCHI_IDENTIFIER>
InChI=1S/C13H19N7O7S2/c14-5(2-28)12(23)19-29(24,25)26-1-6-8(21)9(22)13(27-6)20-4-18-7-10(15)16-3-17-11(7)20/h3-6,8-9,13,21-22,28H,1-2,14H2,(H,19,23)(H2,15,16,17)/t5-,6+,8+,9-,13-/m1/s1

> <INCHI_KEY>
InChIKey=FTSDEWPMACCNGN-FLNYCXGNSA-N

> <SMILES>
N[C@H](CS)C(=O)NS(=O)(=O)OC[C@@H]1O[C@H]([C@H](O)[C@H]1O)N1C=NC2=C1N=CN=C2N

> <JCHEM_ACCEPTOR_COUNT>
12

> <JCHEM_DONOR_COUNT>
6

> <JCHEM_ACIDIC_PKA>
2.72

> <JCHEM_BASIC_PKA>
6.48

> <JCHEM_PHYSIOLOGICAL_CHARGE>
-1

> <ALOGPS_LOGP>
-1.3

> <JCHEM_LOGP>
-3.9

> <ALOGPS_LOGS>
-2.2

> <JCHEM_POLARIZABILITY>
40.82

> <JCHEM_POLAR_SURFACE_AREA>
217.8

> <JCHEM_REFRACTIVITY>
99.87

> <JCHEM_ROTATABLE_BOND_COUNT>
6

> <ALOGPS_SOLUBILITY>
2.52e+00 g/l __ 

$$$$
