
  Mrv0541 02231216342D          

  9  8  0  0  0  0            999 V2000
    2.9980    2.5559    0.0000 C   0  0  0  0  0  0  0  0  0  0  0  0
    3.7125    2.1434    0.0000 O   0  0  0  0  0  0  0  0  0  0  0  0
    4.4270    2.5559    0.0000 C   0  0  0  0  0  0  0  0  0  0  0  0
    5.1414    2.1434    0.0000 C   0  0  0  0  0  0  0  0  0  0  0  0
    5.8559    2.5559    0.0000 O   0  0  0  0  0  0  0  0  0  0  0  0
    6.5704    2.1434    0.0000 C   0  0  0  0  0  0  0  0  0  0  0  0
    7.2849    2.5559    0.0000 C   0  0  0  0  0  0  0  0  0  0  0  0
    7.9993    2.1434    0.0000 O   0  0  0  0  0  0  0  0  0  0  0  0
    8.7138    2.5559    0.0000 C   0  0  0  0  0  0  0  0  0  0  0  0
  1  2  1  0  0  0  0
  2  3  1  0  0  0  0
  3  4  1  0  0  0  0
  4  5  1  0  0  0  0
  5  6  1  0  0  0  0
  6  7  1  0  0  0  0
  7  8  1  0  0  0  0
  8  9  1  0  0  0  0
M  END
> <DRUGBANK_ID>
DB02935

> <DRUG_GROUPS>
experimental

> <GENERIC_NAME>
1-Methoxy-2-(2-Methoxyethoxy)Ethane

> <CHEMICAL_FORMULA>
C6H14O3

> <MOLECULAR_WEIGHT>
134.1736

> <EXACT_MASS>
134.094294314

> <IUPAC_NAME>
1-methoxy-2-(2-methoxyethoxy)ethane

> <IUPAC_TRADITIONAL_NAME>
diglyme

> <INCHI_IDENTIFIER>
InChI=1S/C6H14O3/c1-7-3-5-9-6-4-8-2/h3-6H2,1-2H3

> <INCHI_KEY>
InChIKey=SBZXBUIDTXKZTM-UHFFFAOYSA-N

> <SMILES>
COCCOCCOC

> <JCHEM_ACCEPTOR_COUNT>
3

> <JCHEM_DONOR_COUNT>
0

> <JCHEM_BASIC_PKA>
-3.7

> <JCHEM_PHYSIOLOGICAL_CHARGE>
0

> <ALOGPS_LOGP>
0.12

> <JCHEM_LOGP>
0.031

> <ALOGPS_LOGS>
-0.34

> <JCHEM_POLARIZABILITY>
15.5

> <JCHEM_POLAR_SURFACE_AREA>
27.69

> <JCHEM_REFRACTIVITY>
35.1

> <JCHEM_ROTATABLE_BOND_COUNT>
6

> <ALOGPS_SOLUBILITY>
6.09e+01 g/l __ 

$$$$
