
  Mrv0541 02231216122D          

  8  8  0  0  0  0            999 V2000
    0.0000    2.4750    0.0000 N   0  3  0  0  0  0  0  0  0  0  0  0
    0.7145    2.0625    0.0000 C   0  0  0  0  0  0  0  0  0  0  0  0
    0.7145    1.2375    0.0000 C   0  0  0  0  0  0  0  0  0  0  0  0
    1.4289    0.8250    0.0000 C   0  0  0  0  0  0  0  0  0  0  0  0
    1.4289    0.0000    0.0000 C   0  0  0  0  0  0  0  0  0  0  0  0
    0.7145   -0.4125    0.0000 C   0  0  0  0  0  0  0  0  0  0  0  0
    0.0000    0.0000    0.0000 C   0  0  0  0  0  0  0  0  0  0  0  0
    0.0000    0.8250    0.0000 C   0  0  0  0  0  0  0  0  0  0  0  0
  1  2  1  0  0  0  0
  2  3  1  0  0  0  0
  3  4  1  0  0  0  0
  4  5  1  0  0  0  0
  5  6  1  0  0  0  0
  6  7  1  0  0  0  0
  7  8  1  0  0  0  0
  3  8  1  0  0  0  0
M  END
> <DRUGBANK_ID>
DB02435

> <DRUG_GROUPS>
experimental

> <GENERIC_NAME>
Aminomethylcyclohexane

> <CHEMICAL_FORMULA>
C7H16N

> <MOLECULAR_WEIGHT>
114.2086

> <EXACT_MASS>
114.128274517

> <IUPAC_NAME>
cyclohexylmethanaminium

> <IUPAC_TRADITIONAL_NAME>
aminomethylcyclohexane

> <INCHI_IDENTIFIER>
InChI=1S/C7H15N/c8-6-7-4-2-1-3-5-7/h7H,1-6,8H2/p+1

> <INCHI_KEY>
InChIKey=AVKNGPAMCBSNSO-UHFFFAOYSA-O

> <SMILES>
[NH3+]CC1CCCCC1

> <JCHEM_ACCEPTOR_COUNT>
0

> <JCHEM_DONOR_COUNT>
1

> <JCHEM_BASIC_PKA>
10.22

> <JCHEM_PHYSIOLOGICAL_CHARGE>
1

> <ALOGPS_LOGP>
-0.73

> <JCHEM_LOGP>
1.49

> <ALOGPS_LOGS>
-4

> <JCHEM_POLARIZABILITY>
14.74

> <JCHEM_POLAR_SURFACE_AREA>
27.64

> <JCHEM_REFRACTIVITY>
46.96

> <JCHEM_ROTATABLE_BOND_COUNT>
1

> <ALOGPS_SOLUBILITY>
1.52e-02 g/l __ 

$$$$
