
  Mrv0541 02231216202D          

 14 13  0  0  0  0            999 V2000
    4.7586    3.5724    0.0000 O    0  0  0  0  0  0  0  0  0  0  0  0
    5.4730    3.9849    0.0000 C    0  0  0  0  0  0  0  0  0  0  0  0
    6.1875    3.5724    0.0000 C    0  0  0  0  0  0  0  0  0  0  0  0
    6.9020    3.9849    0.0000 C    0  0  0  0  0  0  0  0  0  0  0  0
    7.6164    3.5724    0.0000 C    0  0  0  0  0  0  0  0  0  0  0  0
    8.3309    3.9849    0.0000 C    0  0  0  0  0  0  0  0  0  0  0  0
    9.0454    3.5724    0.0000 C    0  0  0  0  0  0  0  0  0  0  0  0
    9.7599    3.9849    0.0000 C    0  0  0  0  0  0  0  0  0  0  0  0
   10.4743    3.5724    0.0000 C    0  0  0  0  0  0  0  0  0  0  0  0
   11.1888    3.9849    0.0000 C    0  0  0  0  0  0  0  0  0  0  0  0
   11.9033    3.5724    0.0000 C    0  0  0  0  0  0  0  0  0  0  0  0
   12.6177    3.9849    0.0000 C    0  0  0  0  0  0  0  0  0  0  0  0
   13.3322    3.5724    0.0000 C    0  0  0  0  0  0  0  0  0  0  0  0
   14.0467    3.9849    0.0000 Br   0  0  0  0  0  0  0  0  0  0  0  0
  1  2  1  0  0  0  0
  2  3  1  0  0  0  0
  3  4  1  0  0  0  0
  4  5  1  0  0  0  0
  5  6  1  0  0  0  0
  6  7  1  0  0  0  0
  7  8  1  0  0  0  0
  8  9  1  0  0  0  0
  9 10  1  0  0  0  0
 10 11  1  0  0  0  0
 11 12  1  0  0  0  0
 12 13  1  0  0  0  0
 13 14  1  0  0  0  0
M  END
> <DRUGBANK_ID>
DB02619

> <DRUG_GROUPS>
experimental

> <GENERIC_NAME>
Bromo-Dodecanol

> <CHEMICAL_FORMULA>
C12H25BrO

> <MOLECULAR_WEIGHT>
265.23

> <EXACT_MASS>
264.108878069

> <IUPAC_NAME>
12-bromododecan-1-ol

> <IUPAC_TRADITIONAL_NAME>
bromo-dodecanol

> <INCHI_IDENTIFIER>
InChI=1S/C12H25BrO/c13-11-9-7-5-3-1-2-4-6-8-10-12-14/h14H,1-12H2

> <INCHI_KEY>
InChIKey=ASIDMJNTHJYVQJ-UHFFFAOYSA-N

> <SMILES>
OCCCCCCCCCCCCBr

> <JCHEM_ACCEPTOR_COUNT>
1

> <JCHEM_DONOR_COUNT>
1

> <JCHEM_ACIDIC_PKA>
16.84

> <JCHEM_BASIC_PKA>
-2

> <JCHEM_PHYSIOLOGICAL_CHARGE>
0

> <ALOGPS_LOGP>
5.28

> <JCHEM_LOGP>
4.47

> <ALOGPS_LOGS>
-5.6

> <JCHEM_POLARIZABILITY>
29.32

> <JCHEM_POLAR_SURFACE_AREA>
20.23

> <JCHEM_REFRACTIVITY>
66.91

> <JCHEM_ROTATABLE_BOND_COUNT>
11

> <ALOGPS_SOLUBILITY>
6.23e-04 g/l __ 

$$$$
