SBI
  Mrv0541 02231216242D          

 17 19  0  0  0  0            999 V2000
   -1.1077   -1.1201    0.0000 C   0  0  0  0  0  0  0  0  0  0  0  0
   -1.2948   -1.9237    0.0000 F   0  0  0  0  0  0  0  0  0  0  0  0
   -1.7101   -0.5564    0.0000 C   0  0  0  0  0  0  0  0  0  0  0  0
   -1.5230    0.2471    0.0000 C   0  0  0  0  0  0  0  0  0  0  0  0
   -0.7336    0.4869    0.0000 C   0  0  0  0  0  0  0  0  0  0  0  0
   -0.5466    1.2904    0.0000 O   0  0  0  0  0  0  0  0  0  0  0  0
    0.2428    1.5302    0.0000 C   0  0  0  0  0  0  0  0  0  0  0  0
    0.8452    0.9664    0.0000 C   0  0  0  0  0  0  0  0  0  0  0  0
    0.6581    0.1629    0.0000 C   0  0  2  0  0  0  0  0  0  0  0  0
    1.4682    0.3189    0.0000 C   0  0  0  0  0  0  0  0  0  0  0  0
    1.8183    1.0659    0.0000 O   0  0  0  0  0  0  0  0  0  0  0  0
    1.8669   -0.4034    0.0000 N   0  0  0  0  0  0  0  0  0  0  0  0
    1.3031   -1.0058    0.0000 C   0  0  0  0  0  0  0  0  0  0  0  0
    1.4591   -1.8159    0.0000 O   0  0  0  0  0  0  0  0  0  0  0  0
    0.5561   -0.6558    0.0000 N   0  0  0  0  0  0  0  0  0  0  0  0
   -0.1313   -0.0769    0.0000 C   0  0  0  0  0  0  0  0  0  0  0  0
   -0.3183   -0.8804    0.0000 C   0  0  0  0  0  0  0  0  0  0  0  0
  1  2  1  0  0  0  0
  1  3  2  0  0  0  0
  1 17  1  0  0  0  0
  3  4  1  0  0  0  0
  4  5  2  0  0  0  0
  5  6  1  0  0  0  0
  5 16  1  0  0  0  0
  6  7  1  0  0  0  0
  7  8  1  0  0  0  0
  8  9  1  0  0  0  0
  9 10  1  0  0  0  0
  9 15  1  6  0  0  0
  9 16  1  0  0  0  0
 10 11  2  0  0  0  0
 10 12  1  0  0  0  0
 12 13  1  0  0  0  0
 13 14  2  0  0  0  0
 13 15  1  0  0  0  0
 16 17  2  0  0  0  0
M  END
> <DRUGBANK_ID>
DB02712

> <DRUG_GROUPS>
experimental

> <GENERIC_NAME>
Sorbinil

> <BRANDS>


> <CHEMICAL_FORMULA>
C11H9FN2O3

> <MOLECULAR_WEIGHT>
236.1992

> <EXACT_MASS>
236.059720369

> <IUPAC_NAME>
(4S)-6-fluoro-2,3-dihydrospiro[1-benzopyran-4,4'-imidazolidine]-2',5'-dione

> <IUPAC_TRADITIONAL_NAME>
sorbinil

> <INCHI_IDENTIFIER>
InChI=1S/C11H9FN2O3/c12-6-1-2-8-7(5-6)11(3-4-17-8)9(15)13-10(16)14-11/h1-2,5H,3-4H2,(H2,13,14,15,16)/t11-/m0/s1

> <INCHI_KEY>
InChIKey=LXANPKRCLVQAOG-NSHDSACASA-N

> <SMILES>
FC1=CC=C2OCC[C@]3(NC(=O)NC3=O)C2=C1

> <JCHEM_ACCEPTOR_COUNT>
3

> <JCHEM_DONOR_COUNT>
2

> <JCHEM_ACIDIC_PKA>
9.15

> <JCHEM_BASIC_PKA>
-4.9

> <JCHEM_PHYSIOLOGICAL_CHARGE>
0

> <ALOGPS_LOGP>
0.59

> <JCHEM_LOGP>
0.44

> <ALOGPS_LOGS>
-1.9

> <JCHEM_POLARIZABILITY>
20.85

> <JCHEM_POLAR_SURFACE_AREA>
67.43

> <JCHEM_REFRACTIVITY>
54.94

> <JCHEM_ROTATABLE_BOND_COUNT>
0

> <ALOGPS_SOLUBILITY>
2.63e+00 g/l __ 

$$$$
