
  Mrv0541 02231216042D          

 13 13  0  0  1  0            999 V2000
    2.0198    0.8843    0.0000 C   0  0  0  0  0  0  0  0  0  0  0  0
    1.2352    0.6294    0.0000 C   0  0  1  0  0  0  0  0  0  0  0  0
    0.9803   -0.1553    0.0000 C   0  0  0  0  0  0  0  0  0  0  0  0
    0.1553   -0.1553    0.0000 C   0  0  2  0  0  0  0  0  0  0  0  0
   -0.0997    0.6294    0.0000 N   0  0  0  0  0  0  0  0  0  0  0  0
    0.5678    1.1143    0.0000 C   0  0  2  0  0  0  0  0  0  0  0  0
    0.5678    1.9393    0.0000 C   0  0  0  0  0  0  0  0  0  0  0  0
    1.2822    2.3518    0.0000 O   0  0  0  0  0  0  0  0  0  0  0  0
   -0.1467    2.3518    0.0000 O   0  0  0  0  0  0  0  0  0  0  0  0
   -0.3297   -0.8227    0.0000 S   0  0  0  0  0  0  0  0  0  0  0  0
   -0.8146   -1.4901    0.0000 O   0  0  0  0  0  0  0  0  0  0  0  0
   -0.9971   -0.3378    0.0000 O   0  0  0  0  0  0  0  0  0  0  0  0
    0.3378   -1.3076    0.0000 O   0  0  0  0  0  0  0  0  0  0  0  0
  2  1  1  1  0  0  0
  2  3  1  0  0  0  0
  3  4  1  0  0  0  0
  4  5  1  0  0  0  0
  5  6  1  0  0  0  0
  2  6  1  0  0  0  0
  6  7  1  6  0  0  0
  7  8  1  0  0  0  0
  7  9  2  0  0  0  0
  4 10  1  1  0  0  0
 10 11  1  0  0  0  0
 10 12  2  0  0  0  0
 10 13  2  0  0  0  0
M  END
> <DRUGBANK_ID>
DB02248

> <DRUG_GROUPS>
experimental

> <GENERIC_NAME>
3-Methyl-5-Sulfo-Pyrrolidine-2-Carboxylic Acid

> <CHEMICAL_FORMULA>
C6H11NO5S

> <MOLECULAR_WEIGHT>
209.22

> <EXACT_MASS>
209.035793157

> <IUPAC_NAME>
(2S,3S,5R)-3-methyl-5-sulfopyrrolidine-2-carboxylic acid

> <IUPAC_TRADITIONAL_NAME>
(2S,3S,5R)-3-methyl-5-sulfopyrrolidine-2-carboxylic acid

> <INCHI_IDENTIFIER>
InChI=1S/C6H11NO5S/c1-3-2-4(13(10,11)12)7-5(3)6(8)9/h3-5,7H,2H2,1H3,(H,8,9)(H,10,11,12)/t3-,4+,5-/m0/s1

> <INCHI_KEY>
InChIKey=PZCKFQRRNSACOM-LMVFSUKVSA-N

> <SMILES>
C[C@H]1C[C@H](N[C@@H]1C(O)=O)S(O)(=O)=O

> <JCHEM_ACCEPTOR_COUNT>
6

> <JCHEM_DONOR_COUNT>
3

> <JCHEM_ACIDIC_PKA>
-3.9

> <JCHEM_BASIC_PKA>
5.91

> <JCHEM_PHYSIOLOGICAL_CHARGE>
-2

> <ALOGPS_LOGP>
-1.9

> <JCHEM_LOGP>
-1.8

> <ALOGPS_LOGS>
-0.83

> <JCHEM_POLARIZABILITY>
18.65

> <JCHEM_POLAR_SURFACE_AREA>
103.7

> <JCHEM_REFRACTIVITY>
42.41

> <JCHEM_ROTATABLE_BOND_COUNT>
2

> <ALOGPS_SOLUBILITY>
3.11e+01 g/l __ 

$$$$
