
  Mrv0541 02231216302D          

 22 22  0  0  1  0            999 V2000
    4.9868    1.0971    0.0000 C   0  0  0  0  0  0  0  0  0  0  0  0
    4.8153    0.2901    0.0000 C   0  0  1  0  0  0  0  0  0  0  0  0
    4.0306    0.0352    0.0000 C   0  0  0  0  0  0  0  0  0  0  0  0
    3.4175    0.5872    0.0000 C   0  0  0  0  0  0  0  0  0  0  0  0
    2.6329    0.3323    0.0000 C   0  0  0  0  0  0  0  0  0  0  0  0
    2.0198    0.8843    0.0000 C   0  0  0  0  0  0  0  0  0  0  0  0
    2.1913    1.6913    0.0000 C   0  0  0  0  0  0  0  0  0  0  0  0
    1.2352    0.6294    0.0000 C   0  0  1  0  0  0  0  0  0  0  0  0
    0.9803   -0.1553    0.0000 C   0  0  0  0  0  0  0  0  0  0  0  0
    0.1553   -0.1553    0.0000 N   0  0  0  0  0  0  0  0  0  0  0  0
   -0.0997    0.6294    0.0000 C   0  0  1  0  0  0  0  0  0  0  0  0
    0.5678    1.1143    0.0000 C   0  0  1  0  0  0  0  0  0  0  0  0
    0.5678    1.9393    0.0000 C   0  0  0  0  0  0  0  0  0  0  0  0
   -0.1467    2.3518    0.0000 C   0  0  0  0  0  0  0  0  0  0  0  0
   -0.1467    3.1768    0.0000 O   0  0  0  0  0  0  0  0  0  0  0  0
   -0.8612    1.9393    0.0000 O   0  0  0  0  0  0  0  0  0  0  0  0
   -0.8843    0.8843    0.0000 C   0  0  0  0  0  0  0  0  0  0  0  0
   -1.0558    1.6913    0.0000 O   0  0  0  0  0  0  0  0  0  0  0  0
   -1.4974    0.3323    0.0000 O   0  0  0  0  0  0  0  0  0  0  0  0
    5.4283   -0.2619    0.0000 C   0  0  0  0  0  0  0  0  0  0  0  0
    6.2130   -0.0070    0.0000 O   0  0  0  0  0  0  0  0  0  0  0  0
    5.2568   -1.0689    0.0000 O   0  0  0  0  0  0  0  0  0  0  0  0
  2  1  1  6  0  0  0
  2  3  1  0  0  0  0
  3  4  2  0  0  0  0
  4  5  1  0  0  0  0
  5  6  2  0  0  0  0
  6  7  1  0  0  0  0
  8  6  1  1  0  0  0
  8  9  1  0  0  0  0
  9 10  1  0  0  0  0
 10 11  1  0  0  0  0
 11 12  1  0  0  0  0
  8 12  1  0  0  0  0
 12 13  1  1  0  0  0
 13 14  1  0  0  0  0
 14 15  1  0  0  0  0
 14 16  2  0  0  0  0
 11 17  1  6  0  0  0
 17 18  1  0  0  0  0
 17 19  2  0  0  0  0
  2 20  1  0  0  0  0
 20 21  1  0  0  0  0
 20 22  2  0  0  0  0
M  END
> <DRUGBANK_ID>
DB02852

> <DRUG_GROUPS>
experimental

> <GENERIC_NAME>
Domoic Acid

> <CHEMICAL_FORMULA>
C15H21NO6

> <MOLECULAR_WEIGHT>
311.3303

> <EXACT_MASS>
311.136887409

> <IUPAC_NAME>
(2S,3S,4S)-4-[(2E,4E,6S)-6-carboxy-6-methylhexa-2,4-dien-2-yl]-3-(carboxymethyl)pyrrolidine-2-carboxylic acid

> <IUPAC_TRADITIONAL_NAME>
domoic acid

> <INCHI_IDENTIFIER>
InChI=1S/C15H21NO6/c1-8(4-3-5-9(2)14(19)20)11-7-16-13(15(21)22)10(11)6-12(17)18/h3-5,9-11,13,16H,6-7H2,1-2H3,(H,17,18)(H,19,20)(H,21,22)/b5-3+,8-4+/t9-,10-,11+,13-/m0/s1

> <INCHI_KEY>
InChIKey=VZFRNCSOCOPNDB-AJKFJWDBSA-N

> <SMILES>
C[C@@H](\C=C\C=C(/C)[C@H]1CN[C@@H]([C@H]1CC(O)=O)C(O)=O)C(O)=O

> <JCHEM_ACCEPTOR_COUNT>
7

> <JCHEM_DONOR_COUNT>
4

> <JCHEM_ACIDIC_PKA>
1.68

> <JCHEM_BASIC_PKA>
11.59

> <JCHEM_PHYSIOLOGICAL_CHARGE>
-2

> <ALOGPS_LOGP>
-0.23

> <JCHEM_LOGP>
-1.8

> <ALOGPS_LOGS>
-2.6

> <JCHEM_POLARIZABILITY>
31.66

> <JCHEM_POLAR_SURFACE_AREA>
123.93

> <JCHEM_REFRACTIVITY>
79.03

> <JCHEM_ROTATABLE_BOND_COUNT>
7

> <ALOGPS_SOLUBILITY>
7.59e-01 g/l __ 

$$$$
