CAH
  Mrv0541 02231216292D          

 14 15  0  0  0  0            999 V2000
   -0.3250   -0.6294    0.0000 C   0  0  2  0  0  0  0  0  0  0  0  0
   -1.1005   -1.0197    0.0000 C   0  0  0  0  0  0  0  0  0  0  0  0
   -1.6950   -1.5916    0.0000 O   0  0  0  0  0  0  0  0  0  0  0  0
   -0.7352   -0.3592    0.0000 C   0  0  0  0  0  0  0  0  0  0  0  0
   -0.0949    0.0910    0.0000 C   0  0  1  0  0  0  0  0  0  0  0  0
    0.7005   -0.3742    0.0000 C   0  0  2  0  0  0  0  0  0  0  0  0
    1.4886   -0.1303    0.0000 O   0  0  0  0  0  0  0  0  0  0  0  0
    0.4055   -0.9996    0.0000 C   0  0  0  0  0  0  0  0  0  0  0  0
   -0.2549    0.9063    0.0000 C   0  0  0  0  0  0  0  0  0  0  0  0
   -0.8346    1.4932    0.0000 C   0  0  0  0  0  0  0  0  0  0  0  0
    0.2319    1.5724    0.0000 C   0  0  0  0  0  0  0  0  0  0  0  0
   -0.3262   -1.4544    0.0000 C   0  0  0  0  0  0  0  0  0  0  0  0
    0.0818    0.6474    0.0000 H   0  0  0  0  0  0  0  0  0  0  0  0
    0.7672    0.2058    0.0000 H   0  0  0  0  0  0  0  0  0  0  0  0
  1  2  1  0  0  0  0
  1  8  1  0  0  0  0
  1  9  1  0  0  0  0
  1 12  1  6  0  0  0
  2  3  2  0  0  0  0
  2  4  1  0  0  0  0
  4  5  1  0  0  0  0
  5  6  1  0  0  0  0
  5  9  1  0  0  0  0
  5 13  1  1  0  0  0
  6  7  1  6  0  0  0
  6  8  1  0  0  0  0
  6 14  1  1  0  0  0
  9 10  1  0  0  0  0
  9 11  1  0  0  0  0
M  END
> <DRUGBANK_ID>
DB02817

> <DRUG_GROUPS>
experimental

> <GENERIC_NAME>
5-Exo-Hydroxycamphor

> <CHEMICAL_FORMULA>
C10H16O2

> <MOLECULAR_WEIGHT>
168.2328

> <EXACT_MASS>
168.115029756

> <IUPAC_NAME>
(1R,4R,5R)-5-hydroxy-1,7,7-trimethylbicyclo[2.2.1]heptan-2-one

> <IUPAC_TRADITIONAL_NAME>
5-exo-hydroxycamphor

> <INCHI_IDENTIFIER>
InChI=1S/C10H16O2/c1-9(2)6-4-8(12)10(9,3)5-7(6)11/h6-7,11H,4-5H2,1-3H3/t6-,7+,10-/m0/s1

> <INCHI_KEY>
InChIKey=DJQYBVLXBVJHMU-PJKMHFRUSA-N

> <SMILES>
[H][C@@]1(O)C[C@@]2(C)C(=O)C[C@]1([H])C2(C)C

> <JCHEM_ACCEPTOR_COUNT>
2

> <JCHEM_DONOR_COUNT>
1

> <JCHEM_ACIDIC_PKA>
14.88

> <JCHEM_BASIC_PKA>
-2.9

> <JCHEM_PHYSIOLOGICAL_CHARGE>
0

> <ALOGPS_LOGP>
1.12

> <JCHEM_LOGP>
1.24

> <ALOGPS_LOGS>
-1.1

> <JCHEM_POLARIZABILITY>
18.62

> <JCHEM_POLAR_SURFACE_AREA>
37.3

> <JCHEM_REFRACTIVITY>
46.08

> <JCHEM_ROTATABLE_BOND_COUNT>
0

> <ALOGPS_SOLUBILITY>
1.24e+01 g/l __ 

$$$$
