
  Mrv0541 02231216102D          

 23 25  0  0  1  0            999 V2000
    3.2789    2.0625    0.0000 N   0  0  0  0  0  0  0  0  0  0  0  0
    3.2789    1.2375    0.0000 C   0  0  0  0  0  0  0  0  0  0  0  0
    3.9934    0.8250    0.0000 N   0  0  0  0  0  0  0  0  0  0  0  0
    3.9934    0.0000    0.0000 C   0  0  0  0  0  0  0  0  0  0  0  0
    3.2789   -0.4125    0.0000 N   0  0  0  0  0  0  0  0  0  0  0  0
    2.5645    0.0000    0.0000 C   0  0  0  0  0  0  0  0  0  0  0  0
    2.5645    0.8250    0.0000 C   0  0  0  0  0  0  0  0  0  0  0  0
    1.7798    1.0799    0.0000 N   0  0  0  0  0  0  0  0  0  0  0  0
    1.2949    0.4125    0.0000 C   0  0  0  0  0  0  0  0  0  0  0  0
    1.7798   -0.2549    0.0000 N   0  0  0  0  0  0  0  0  0  0  0  0
    1.5249   -1.0396    0.0000 C   0  0  2  0  0  0  0  0  0  0  0  0
    2.0098   -1.7070    0.0000 O   0  0  0  0  0  0  0  0  0  0  0  0
    1.5249   -2.3744    0.0000 C   0  0  1  0  0  0  0  0  0  0  0  0
    1.7798   -3.1591    0.0000 C   0  0  0  0  0  0  0  0  0  0  0  0
    1.2278   -3.7722    0.0000 O   0  0  0  0  0  0  0  0  0  0  0  0
    1.4827   -4.5568    0.0000 W   0  0  0  0  0  0  0  0  0  0  0  0
    1.7377   -5.3414    0.0000 O   0  0  0  0  0  0  0  0  0  0  0  0
    0.6981   -4.8117    0.0000 O   0  0  0  0  0  0  0  0  0  0  0  0
    2.2674   -4.3018    0.0000 O   0  0  0  0  0  0  0  0  0  0  0  0
    0.7403   -2.1195    0.0000 C   0  0  2  0  0  0  0  0  0  0  0  0
    0.0728   -2.6044    0.0000 O   0  0  0  0  0  0  0  0  0  0  0  0
    0.7403   -1.2945    0.0000 C   0  0  1  0  0  0  0  0  0  0  0  0
    0.0728   -0.8096    0.0000 O   0  0  0  0  0  0  0  0  0  0  0  0
  1  2  1  0  0  0  0
  2  3  2  0  0  0  0
  3  4  1  0  0  0  0
  4  5  2  0  0  0  0
  5  6  1  0  0  0  0
  6  7  2  0  0  0  0
  2  7  1  0  0  0  0
  7  8  1  0  0  0  0
  8  9  2  0  0  0  0
  9 10  1  0  0  0  0
  6 10  1  0  0  0  0
 11 10  1  6  0  0  0
 11 12  1  0  0  0  0
 12 13  1  0  0  0  0
 13 14  1  1  0  0  0
 14 15  1  0  0  0  0
 15 16  1  0  0  0  0
 16 17  1  0  0  0  0
 16 18  1  0  0  0  0
 16 19  2  0  0  0  0
 13 20  1  0  0  0  0
 20 21  1  6  0  0  0
 20 22  1  0  0  0  0
 11 22  1  0  0  0  0
 22 23  1  1  0  0  0
M  END
> <DRUGBANK_ID>
DB02373

> <DRUG_GROUPS>
experimental

> <GENERIC_NAME>
Adenosine Monotungstate

> <CHEMICAL_FORMULA>
C10H14N5O7W

> <MOLECULAR_WEIGHT>
500.09

> <EXACT_MASS>
500.04025538

> <IUPAC_NAME>
{[(2S,3R,4R,5R)-5-(6-amino-9H-purin-9-yl)-3,4-dihydroxyoxolan-2-yl]methoxy}(oxo)tungstendiol

> <IUPAC_TRADITIONAL_NAME>
adenosine monotungstate

> <INCHI_IDENTIFIER>
InChI=1S/C10H12N5O4.2H2O.O.W/c11-8-5-9(13-2-12-8)15(3-14-5)10-7(18)6(17)4(1-16)19-10;;;;/h2-4,6-7,10,17-18H,1H2,(H2,11,12,13);2*1H2;;/q-1;;;;+3/p-2/t4-,6-,7+,10+;;;;/m0..../s1

> <INCHI_KEY>
InChIKey=FJSJQPRHXPUMLC-LRDMJOKZSA-L

> <SMILES>
NC1=NC=NC2=C1N=CN2[C@@H]1O[C@@H](CO[W](O)(O)=O)[C@H](O)[C@H]1O

> <JCHEM_ACCEPTOR_COUNT>
10

> <JCHEM_DONOR_COUNT>
5

> <JCHEM_ACIDIC_PKA>
12.3

> <JCHEM_BASIC_PKA>
4.99

> <JCHEM_PHYSIOLOGICAL_CHARGE>
0

> <ALOGPS_LOGP>
-1.2

> <JCHEM_LOGP>
-3

> <ALOGPS_LOGS>
-1.5

> <JCHEM_POLARIZABILITY>
30.45

> <JCHEM_POLAR_SURFACE_AREA>
186.07

> <JCHEM_REFRACTIVITY>
68.55

> <JCHEM_ROTATABLE_BOND_COUNT>
4

> <ALOGPS_SOLUBILITY>
1.58e+01 g/l __ 

$$$$
