DII
  Mrv0541 02231215592D          

 11 10  0  0  0  0            999 V2000
    0.0700    0.1215    0.0000 P   0  0  0  0  0  0  0  0  0  0  0  0
   -0.3425    0.8360    0.0000 O   0  0  0  0  0  0  0  0  0  0  0  0
   -0.6444   -0.2910    0.0000 O   0  0  0  0  0  0  0  0  0  0  0  0
   -1.3589    0.1215    0.0000 C   0  0  0  0  0  0  0  0  0  0  0  0
   -2.0733   -0.2910    0.0000 C   0  0  0  0  0  0  0  0  0  0  0  0
   -1.3589    0.9465    0.0000 C   0  0  0  0  0  0  0  0  0  0  0  0
    0.7845    0.5339    0.0000 O   0  0  0  0  0  0  0  0  0  0  0  0
    1.4988    0.1215    0.0000 C   0  0  0  0  0  0  0  0  0  0  0  0
    2.2133    0.5339    0.0000 C   0  0  0  0  0  0  0  0  0  0  0  0
    1.4988   -0.7035    0.0000 C   0  0  0  0  0  0  0  0  0  0  0  0
    0.4824   -0.5929    0.0000 C   0  0  0  0  0  0  0  0  0  0  0  0
  1  2  2  0  0  0  0
  1  3  1  0  0  0  0
  1  7  1  0  0  0  0
  1 11  1  0  0  0  0
  3  4  1  0  0  0  0
  4  5  1  0  0  0  0
  4  6  1  0  0  0  0
  7  8  1  0  0  0  0
  8  9  1  0  0  0  0
  8 10  1  0  0  0  0
M  END
> <DRUGBANK_ID>
DB02127

> <DRUG_GROUPS>
experimental

> <GENERIC_NAME>
Methylphosphonic Acid Diisopropyl Ester

> <CHEMICAL_FORMULA>
C7H17O3P

> <MOLECULAR_WEIGHT>
180.1818

> <EXACT_MASS>
180.091530922

> <IUPAC_NAME>
bis(propan-2-yl) methylphosphonate

> <IUPAC_TRADITIONAL_NAME>
diisopropyl methylphosphonate

> <INCHI_IDENTIFIER>
InChI=1S/C7H17O3P/c1-6(2)9-11(5,8)10-7(3)4/h6-7H,1-5H3

> <INCHI_KEY>
InChIKey=WOAFDHWYKSOANX-UHFFFAOYSA-N

> <SMILES>
CC(C)OP(C)(=O)OC(C)C

> <JCHEM_ACCEPTOR_COUNT>
1

> <JCHEM_DONOR_COUNT>
0

> <JCHEM_BASIC_PKA>
-7.9

> <JCHEM_PHYSIOLOGICAL_CHARGE>
0

> <ALOGPS_LOGP>
1.02

> <JCHEM_LOGP>
1.41

> <ALOGPS_LOGS>
-1.1

> <JCHEM_POLARIZABILITY>
18.51

> <JCHEM_POLAR_SURFACE_AREA>
35.53

> <JCHEM_REFRACTIVITY>
44.48

> <JCHEM_ROTATABLE_BOND_COUNT>
4

> <ALOGPS_SOLUBILITY>
1.28e+01 g/l __ 

$$$$
