CTB
  Mrv0541 02231215572D          

 13 13  0  0  0  0            999 V2000
   -2.4145    0.3116    0.0000 B   0  0  0  0  0  0  0  0  0  0  0  0
   -3.1290   -0.1009    0.0000 O   0  0  0  0  0  0  0  0  0  0  0  0
   -2.4145    1.1366    0.0000 O   0  0  0  0  0  0  0  0  0  0  0  0
   -1.7000   -0.1009    0.0000 C   0  0  0  0  0  0  0  0  0  0  0  0
   -0.9856    0.3116    0.0000 N   0  0  0  0  0  0  0  0  0  0  0  0
   -0.2711   -0.1009    0.0000 C   0  0  0  0  0  0  0  0  0  0  0  0
   -0.2711   -0.9259    0.0000 O   0  0  0  0  0  0  0  0  0  0  0  0
    0.4434    0.3116    0.0000 C   0  0  0  0  0  0  0  0  0  0  0  0
    1.1578   -0.1009    0.0000 C   0  0  0  0  0  0  0  0  0  0  0  0
    1.9115    0.2346    0.0000 C   0  0  0  0  0  0  0  0  0  0  0  0
    2.4636   -0.3785    0.0000 C   0  0  0  0  0  0  0  0  0  0  0  0
    2.0511   -1.0930    0.0000 C   0  0  0  0  0  0  0  0  0  0  0  0
    1.2441   -0.9214    0.0000 S   0  0  0  0  0  0  0  0  0  0  0  0
  1  2  1  0  0  0  0
  1  3  1  0  0  0  0
  1  4  1  0  0  0  0
  4  5  1  0  0  0  0
  5  6  1  0  0  0  0
  6  7  2  0  0  0  0
  6  8  1  0  0  0  0
  8  9  1  0  0  0  0
  9 10  2  0  0  0  0
  9 13  1  0  0  0  0
 10 11  1  0  0  0  0
 11 12  2  0  0  0  0
 12 13  1  0  0  0  0
M  END
> <DRUGBANK_ID>
DB02094

> <DRUG_GROUPS>
experimental

> <GENERIC_NAME>
N-2-Thiophen-2-Yl-Acetamide Boronic Acid

> <CHEMICAL_FORMULA>
C7H10BNO3S

> <MOLECULAR_WEIGHT>
199.035

> <EXACT_MASS>
199.047444347

> <IUPAC_NAME>
{[2-(thiophen-2-yl)acetamido]methyl}boronic acid

> <IUPAC_TRADITIONAL_NAME>
[2-(thiophen-2-yl)acetamido]methylboronic acid

> <INCHI_IDENTIFIER>
InChI=1S/C7H10BNO3S/c10-7(9-5-8(11)12)4-6-2-1-3-13-6/h1-3,11-12H,4-5H2,(H,9,10)

> <INCHI_KEY>
InChIKey=VXAPSUDMBNWYNC-UHFFFAOYSA-N

> <SMILES>
OB(O)CNC(=O)CC1=CC=CS1

> <JCHEM_ACCEPTOR_COUNT>
3

> <JCHEM_DONOR_COUNT>
3

> <JCHEM_ACIDIC_PKA>
15.07

> <JCHEM_BASIC_PKA>
-2.9

> <JCHEM_PHYSIOLOGICAL_CHARGE>
0

> <ALOGPS_LOGP>
0.23

> <JCHEM_LOGP>
1.06

> <ALOGPS_LOGS>
-3

> <JCHEM_POLARIZABILITY>
19.72

> <JCHEM_POLAR_SURFACE_AREA>
69.56

> <JCHEM_REFRACTIVITY>
44.83

> <JCHEM_ROTATABLE_BOND_COUNT>
4

> <ALOGPS_SOLUBILITY>
2.21e-01 g/l __ 

$$$$
