
  Mrv0541 02231216312D          

 59 68  0  0  1  0            999 V2000
    3.2904   -2.0594    0.0000 C    0  0  0  0  0  0  0  0  0  0  0  0
    3.2250   -1.2370    0.0000 C    0  0  0  0  0  0  0  0  0  0  0  0
    2.4801   -0.8824    0.0000 C    0  0  1  0  0  0  0  0  0  0  0  0
    2.2336   -1.6697    0.0000 O    0  0  0  0  0  0  0  0  0  0  0  0
    1.6360   -0.7438    0.0000 C    0  0  0  0  0  0  0  0  0  0  0  0
    1.2529    0.0432    0.0000 C    0  0  2  0  0  0  0  0  0  0  0  0
    1.9147    0.4130    0.0000 C    0  0  0  0  0  0  0  0  0  0  0  0
    2.6359    0.6468    0.0000 N    0  0  2  0  0  0  0  0  0  0  0  0
    2.6885    1.5209    0.0000 C    0  0  0  0  0  0  0  0  0  0  0  0
    2.2483    2.2604    0.0000 C    0  0  0  0  0  0  0  0  0  0  0  0
    1.4473    2.5182    0.0000 C    0  0  0  0  0  0  0  0  0  0  0  0
    0.6912    2.1882    0.0000 C    0  0  0  0  0  0  0  0  0  0  0  0
    0.1436    2.8053    0.0000 N    0  0  0  0  0  0  0  0  0  0  0  0
    0.5614    3.5167    0.0000 C    0  0  0  0  0  0  0  0  0  0  0  0
    0.3122    4.3032    0.0000 C    0  0  0  0  0  0  0  0  0  0  0  0
    0.8687    4.9122    0.0000 C    0  0  0  0  0  0  0  0  0  0  0  0
    1.6744    4.7348    0.0000 C    0  0  0  0  0  0  0  0  0  0  0  0
    1.9236    3.9483    0.0000 C    0  0  0  0  0  0  0  0  0  0  0  0
    1.3671    3.3393    0.0000 C    0  0  0  0  0  0  0  0  0  0  0  0
    0.3333    1.4245    0.0000 C    0  0  1  0  0  0  0  0  0  0  0  0
    0.5763    0.5990    0.0000 C    0  0  0  0  0  0  0  0  0  0  0  0
   -0.3797    1.8395    0.0000 C    0  0  0  0  0  0  0  0  0  0  0  0
   -1.1999    1.9285    0.0000 O    0  0  0  0  0  0  0  0  0  0  0  0
   -0.3769    2.6645    0.0000 O    0  0  0  0  0  0  0  0  0  0  0  0
   -1.0899    3.0794    0.0000 C    0  0  0  0  0  0  0  0  0  0  0  0
   -0.4343    1.1224    0.0000 C    0  0  0  0  0  0  0  0  0  0  0  0
   -1.0799    1.6361    0.0000 C    0  0  0  0  0  0  0  0  0  0  0  0
   -1.8475    1.3339    0.0000 C    0  0  0  0  0  0  0  0  0  0  0  0
   -1.9696    0.5180    0.0000 C    0  0  0  0  0  0  0  0  0  0  0  0
   -1.3241    0.0043    0.0000 C    0  0  0  0  0  0  0  0  0  0  0  0
   -0.5564    0.3064    0.0000 C    0  0  0  0  0  0  0  0  0  0  0  0
    0.0891   -0.2073    0.0000 O    0  0  0  0  0  0  0  0  0  0  0  0
   -0.0330   -1.0232    0.0000 C    0  0  0  0  0  0  0  0  0  0  0  0
   -2.7834    0.3820    0.0000 N    0  0  0  0  0  0  0  0  0  0  0  0
   -3.1516   -0.3562    0.0000 C    0  0  0  0  0  0  0  0  0  0  0  0
   -3.1641    1.1139    0.0000 C    0  0  1  0  0  0  0  0  0  0  0  0
   -3.9628    1.3206    0.0000 C    0  0  2  0  0  0  0  0  0  0  0  0
   -4.1831    2.1156    0.0000 C    0  0  0  0  0  0  0  0  0  0  0  0
   -3.6047    2.7039    0.0000 C    0  0  1  0  0  0  0  0  0  0  0  0
   -4.4034    2.9107    0.0000 C    0  0  0  0  0  0  0  0  0  0  0  0
   -4.6237    3.7057    0.0000 C    0  0  0  0  0  0  0  0  0  0  0  0
   -3.8250    3.4990    0.0000 C    0  0  0  0  0  0  0  0  0  0  0  0
   -3.2466    4.0873    0.0000 C    0  0  0  0  0  0  0  0  0  0  0  0
   -2.4480    3.8806    0.0000 C    0  0  0  0  0  0  0  0  0  0  0  0
   -2.2277    3.0855    0.0000 N    0  0  0  0  0  0  0  0  0  0  0  0
   -1.4725    2.4387    0.0000 C    0  0  0  0  0  0  0  0  0  0  0  0
   -1.7616    1.6660    0.0000 C    0  0  0  0  0  0  0  0  0  0  0  0
   -2.5858    1.7022    0.0000 C    0  0  1  0  0  0  0  0  0  0  0  0
   -2.8061    2.4972    0.0000 C    0  0  1  0  0  0  0  0  0  0  0  0
   -3.8268    0.5069    0.0000 O    0  0  0  0  0  0  0  0  0  0  0  0
   -4.5587    0.1261    0.0000 C    0  0  0  0  0  0  0  0  0  0  0  0
   -4.6808   -0.6898    0.0000 O    0  0  0  0  0  0  0  0  0  0  0  0
   -5.1470    0.7045    0.0000 N    0  0  0  0  0  0  0  0  0  0  0  0
   -5.9607    0.5685    0.0000 C    0  0  0  0  0  0  0  0  0  0  0  0
   -6.2498   -0.2042    0.0000 C    0  0  0  0  0  0  0  0  0  0  0  0
   -7.0635   -0.3402    0.0000 Cl   0  0  0  0  0  0  0  0  0  0  0  0
   -4.7787    1.4427    0.0000 C    0  0  0  0  0  0  0  0  0  0  0  0
   -5.1595    2.1746    0.0000 O    0  0  0  0  0  0  0  0  0  0  0  0
    2.9525   -0.1692    0.0000 C    0  0  0  0  0  0  0  0  0  0  0  0
  1  2  1  0  0  0  0
  3  2  1  1  0  0  0
  3  4  1  6  0  0  0
  3  5  1  0  0  0  0
  6  5  1  1  0  0  0
  6  7  1  0  0  0  0
  8  7  1  6  0  0  0
  8  9  1  0  0  0  0
  9 10  1  0  0  0  0
 10 11  1  0  0  0  0
 11 12  4  0  0  0  0
 12 13  4  0  0  0  0
 13 14  4  0  0  0  0
 14 15  4  0  0  0  0
 15 16  4  0  0  0  0
 16 17  4  0  0  0  0
 17 18  4  0  0  0  0
 18 19  4  0  0  0  0
 11 19  4  0  0  0  0
 14 19  4  0  0  0  0
 12 20  1  0  0  0  0
 20 21  1  0  0  0  0
  6 21  1  0  0  0  0
 20 22  1  1  0  0  0
 22 23  2  0  0  0  0
 22 24  1  0  0  0  0
 24 25  1  0  0  0  0
 20 26  1  6  0  0  0
 26 27  2  0  0  0  0
 27 28  1  0  0  0  0
 28 29  2  0  0  0  0
 29 30  1  0  0  0  0
 30 31  2  0  0  0  0
 26 31  1  0  0  0  0
 31 32  1  0  0  0  0
 32 33  1  0  0  0  0
 29 34  1  0  0  0  0
 34 35  1  0  0  0  0
 36 34  1  1  0  0  0
 36 37  1  0  0  0  0
 37 38  1  1  0  0  0
 38 39  1  0  0  0  0
 39 40  1  6  0  0  0
 40 41  1  0  0  0  0
 39 42  1  0  0  0  0
 42 43  2  0  0  0  0
 43 44  1  0  0  0  0
 44 45  1  0  0  0  0
 45 46  1  0  0  0  0
 46 47  1  0  0  0  0
 47 48  1  0  0  0  0
 48 28  1  6  0  0  0
 36 48  1  0  0  0  0
 48 49  1  0  0  0  0
 39 49  1  0  0  0  0
 49 45  1  1  0  0  0
 37 50  1  0  0  0  0
 50 51  1  0  0  0  0
 51 52  2  0  0  0  0
 51 53  1  0  0  0  0
 53 54  1  0  0  0  0
 54 55  1  0  0  0  0
 55 56  1  0  0  0  0
 53 57  1  0  0  0  0
 37 57  1  0  0  0  0
 57 58  2  0  0  0  0
  8 59  1  0  0  0  0
  3 59  1  0  0  0  0
M  END
> <DRUGBANK_ID>
DB02868

> <DRUG_GROUPS>
experimental

> <GENERIC_NAME>
3''-(Beta-Chloroethyl)-2'',4''-Dioxo-3, 5''-Spiro-Oxazolidino-4-Deacetoxy-Vinblastine

> <CHEMICAL_FORMULA>
C46H55ClN5O7

> <MOLECULAR_WEIGHT>
825.411

> <EXACT_MASS>
824.379001846

> <SMILES>
CC[C@@]1(O)C[C@@H]2C[N@@](C1)CCc1c(nc3ccccc13)[C@@](C2)(C(=O)OC)C1=CC2=C(C=C1OC)N(C)[C@H]1[C@]3(C[C@@]4(CC)C=CCN5CC[C@@]21[C@@H]45)OC(=O)N(CCCl)C3=O

> <JCHEM_ACCEPTOR_COUNT>
9

> <JCHEM_DONOR_COUNT>
1

> <JCHEM_ACIDIC_PKA>
14.41

> <JCHEM_BASIC_PKA>
8.88

> <JCHEM_PHYSIOLOGICAL_CHARGE>
2

> <ALOGPS_LOGP>
5.05

> <JCHEM_LOGP>
5.92

> <ALOGPS_LOGS>
-5

> <JCHEM_POLARIZABILITY>
90.13

> <JCHEM_POLAR_SURFACE_AREA>
124.98

> <JCHEM_REFRACTIVITY>
224.53

> <JCHEM_ROTATABLE_BOND_COUNT>
8

> <ALOGPS_SOLUBILITY>
9.34e-03 g/l __ 

$$$$
