
  Mrv0541 02231216032D          

  6  5  0  0  0  0            999 V2000
    1.2375    2.1434    0.0000 C   0  0  0  0  0  0  0  0  0  0  0  0
    0.8250    1.4289    0.0000 C   0  0  0  0  0  0  0  0  0  0  0  0
    1.2375    0.7145    0.0000 S   0  0  0  0  0  0  0  0  0  0  0  0
    0.8250    0.0000    0.0000 C   0  0  0  0  0  0  0  0  0  0  0  0
    1.2375   -0.7145    0.0000 N   0  0  0  0  0  0  0  0  0  0  0  0
    0.0000    0.0000    0.0000 N   0  0  0  0  0  0  0  0  0  0  0  0
  1  2  1  0  0  0  0
  2  3  1  0  0  0  0
  3  4  1  0  0  0  0
  4  5  1  0  0  0  0
  4  6  2  0  0  0  0
M  END
> <DRUGBANK_ID>
DB02234

> <DRUG_GROUPS>
experimental

> <GENERIC_NAME>
Ethylisothiourea

> <CHEMICAL_FORMULA>
C3H8N2S

> <MOLECULAR_WEIGHT>
104.174

> <EXACT_MASS>
104.040818956

> <IUPAC_NAME>
(ethylsulfanyl)methanimidamide

> <IUPAC_TRADITIONAL_NAME>
ethylsulfanylmethanimidamide

> <INCHI_IDENTIFIER>
InChI=1S/C3H8N2S/c1-2-6-3(4)5/h2H2,1H3,(H3,4,5)

> <INCHI_KEY>
InChIKey=VFIZBHJTOHUOEK-UHFFFAOYSA-N

> <SMILES>
CCSC(N)=N

> <JCHEM_ACCEPTOR_COUNT>
2

> <JCHEM_DONOR_COUNT>
2

> <JCHEM_BASIC_PKA>
10.59

> <JCHEM_PHYSIOLOGICAL_CHARGE>
1

> <ALOGPS_LOGP>
0.03

> <JCHEM_LOGP>
0.67

> <ALOGPS_LOGS>
-1.3

> <JCHEM_POLARIZABILITY>
10.96

> <JCHEM_POLAR_SURFACE_AREA>
49.87

> <JCHEM_REFRACTIVITY>
39.78

> <JCHEM_ROTATABLE_BOND_COUNT>
2

> <ALOGPS_SOLUBILITY>
4.77e+00 g/l __ 

$$$$
