
  Mrv0541 02231216022D          

  6  5  0  0  0  0            999 V2000
     2.475     0.000     0.000 C   0  0  0  0  0  0  0  0  0  0  0  0
     1.650     0.000     0.000 C   0  0  0  0  0  0  0  0  0  0  0  0
     1.650     0.825     0.000 C   0  0  0  0  0  0  0  0  0  0  0  0
     1.650    -0.825     0.000 O   0  0  0  0  0  0  0  0  0  0  0  0
     0.825     0.000     0.000 C   0  0  0  0  0  0  0  0  0  0  0  0
     0.000     0.000     0.000 N   0  0  0  0  0  0  0  0  0  0  0  0
  1  2  1  0  0  0  0
  2  3  1  0  0  0  0
  2  4  1  0  0  0  0
  2  5  1  0  0  0  0
  5  6  3  0  0  0  0
M  END
> <DRUGBANK_ID>
DB02203

> <DRUG_GROUPS>
experimental

> <GENERIC_NAME>
Acetone Cyanohydrin

> <CHEMICAL_FORMULA>
C4H7NO

> <MOLECULAR_WEIGHT>
85.1045

> <EXACT_MASS>
85.052763851

> <IUPAC_NAME>
2-hydroxy-2-methylpropanenitrile

> <IUPAC_TRADITIONAL_NAME>
acetone cyanohydrin

> <INCHI_IDENTIFIER>
InChI=1S/C4H7NO/c1-4(2,6)3-5/h6H,1-2H3

> <INCHI_KEY>
InChIKey=MWFMGBPGAXYFAR-UHFFFAOYSA-N

> <SMILES>
CC(C)(O)C#N

> <JCHEM_ACCEPTOR_COUNT>
2

> <JCHEM_DONOR_COUNT>
1

> <JCHEM_ACIDIC_PKA>
12.76

> <JCHEM_BASIC_PKA>
-3.8

> <JCHEM_PHYSIOLOGICAL_CHARGE>
0

> <ALOGPS_LOGP>
-0.29

> <JCHEM_LOGP>
0.019

> <ALOGPS_LOGS>
-0.52

> <JCHEM_POLARIZABILITY>
8.81

> <JCHEM_POLAR_SURFACE_AREA>
44.02

> <JCHEM_REFRACTIVITY>
22.53

> <JCHEM_ROTATABLE_BOND_COUNT>
0

> <ALOGPS_SOLUBILITY>
2.60e+01 g/l __ 

$$$$
