
  Mrv0541 02231216352D          

 19 21  0  0  1  0            999 V2000
    3.2789    2.0625    0.0000 N   0  0  0  0  0  0  0  0  0  0  0  0
    3.2789    1.2375    0.0000 C   0  0  0  0  0  0  0  0  0  0  0  0
    3.9934    0.8250    0.0000 N   0  0  0  0  0  0  0  0  0  0  0  0
    3.9934    0.0000    0.0000 C   0  0  0  0  0  0  0  0  0  0  0  0
    4.7079   -0.4125    0.0000 F   0  0  0  0  0  0  0  0  0  0  0  0
    3.2789   -0.4125    0.0000 N   0  0  0  0  0  0  0  0  0  0  0  0
    2.5645    0.0000    0.0000 C   0  0  0  0  0  0  0  0  0  0  0  0
    2.5645    0.8250    0.0000 C   0  0  0  0  0  0  0  0  0  0  0  0
    1.7798    1.0799    0.0000 N   0  0  0  0  0  0  0  0  0  0  0  0
    1.2949    0.4125    0.0000 C   0  0  0  0  0  0  0  0  0  0  0  0
    1.7798   -0.2549    0.0000 N   0  0  0  0  0  0  0  0  0  0  0  0
    1.5249   -1.0396    0.0000 C   0  0  1  0  0  0  0  0  0  0  0  0
    2.0098   -1.7070    0.0000 C   0  0  0  0  0  0  0  0  0  0  0  0
    1.5249   -2.3744    0.0000 C   0  0  1  0  0  0  0  0  0  0  0  0
    1.7798   -3.1591    0.0000 O   0  0  0  0  0  0  0  0  0  0  0  0
    0.7403   -2.1195    0.0000 C   0  0  2  0  0  0  0  0  0  0  0  0
    0.0728   -2.6044    0.0000 C   0  0  0  0  0  0  0  0  0  0  0  0
    0.1591   -3.4249    0.0000 O   0  0  0  0  0  0  0  0  0  0  0  0
    0.7403   -1.2945    0.0000 O   0  0  0  0  0  0  0  0  0  0  0  0
  1  2  1  0  0  0  0
  2  3  2  0  0  0  0
  3  4  1  0  0  0  0
  4  5  1  0  0  0  0
  4  6  2  0  0  0  0
  6  7  1  0  0  0  0
  7  8  2  0  0  0  0
  2  8  1  0  0  0  0
  8  9  1  0  0  0  0
  9 10  2  0  0  0  0
 10 11  1  0  0  0  0
  7 11  1  0  0  0  0
 12 11  1  1  0  0  0
 12 13  1  0  0  0  0
 13 14  1  0  0  0  0
 14 15  1  1  0  0  0
 14 16  1  0  0  0  0
 16 17  1  6  0  0  0
 17 18  1  0  0  0  0
 16 19  1  0  0  0  0
 12 19  1  0  0  0  0
M  END
> <DRUGBANK_ID>
DB02947

> <DRUG_GROUPS>
experimental

> <GENERIC_NAME>
2-Fluoro-2'-Deoxyadenosine

> <CHEMICAL_FORMULA>
C10H12FN5O3

> <MOLECULAR_WEIGHT>
269.2324

> <EXACT_MASS>
269.09241748

> <IUPAC_NAME>
(2S,3R,5R)-5-(6-amino-2-fluoro-9H-purin-9-yl)-2-(hydroxymethyl)oxolan-3-ol

> <IUPAC_TRADITIONAL_NAME>
(2S,3R,5R)-5-(6-amino-2-fluoropurin-9-yl)-2-(hydroxymethyl)oxolan-3-ol

> <INCHI_IDENTIFIER>
InChI=1S/C10H12FN5O3/c11-10-14-8(12)7-9(15-10)16(3-13-7)6-1-4(18)5(2-17)19-6/h3-6,17-18H,1-2H2,(H2,12,14,15)/t4-,5+,6-/m1/s1

> <INCHI_KEY>
InChIKey=ZWPYUXAXLRFWQC-NGJCXOISSA-N

> <SMILES>
NC1=NC(F)=NC2=C1N=CN2[C@H]1C[C@@H](O)[C@H](CO)O1

> <JCHEM_ACCEPTOR_COUNT>
7

> <JCHEM_DONOR_COUNT>
3

> <JCHEM_ACIDIC_PKA>
13.89

> <JCHEM_BASIC_PKA>
0.74

> <JCHEM_PHYSIOLOGICAL_CHARGE>
0

> <ALOGPS_LOGP>
-0.52

> <JCHEM_LOGP>
-0.57

> <ALOGPS_LOGS>
-1.5

> <JCHEM_POLARIZABILITY>
24.03

> <JCHEM_POLAR_SURFACE_AREA>
119.31

> <JCHEM_REFRACTIVITY>
62.55

> <JCHEM_ROTATABLE_BOND_COUNT>
2

> <ALOGPS_SOLUBILITY>
9.17e+00 g/l __ 

$$$$
