
  Mrv0541 02231215562D          

 52 54  0  0  1  0            999 V2000
   -7.1447    2.4750    0.0000 N   0  0  0  0  0  0  0  0  0  0  0  0
   -6.4302    2.8875    0.0000 C   0  0  0  0  0  0  0  0  0  0  0  0
   -5.7158    2.4750    0.0000 N   0  0  0  0  0  0  0  0  0  0  0  0
   -5.0013    2.8875    0.0000 C   0  0  0  0  0  0  0  0  0  0  0  0
   -5.0013    3.7125    0.0000 C   0  0  0  0  0  0  0  0  0  0  0  0
   -4.2868    4.1250    0.0000 N   0  0  0  0  0  0  0  0  0  0  0  0
   -4.2868    4.9500    0.0000 C   0  0  0  0  0  0  0  0  0  0  0  0
   -3.5724    5.3625    0.0000 O   0  0  0  0  0  0  0  0  0  0  0  0
   -3.5724    3.7125    0.0000 C   0  0  2  0  0  0  0  0  0  0  0  0
   -2.8579    4.1250    0.0000 C   0  0  0  0  0  0  0  0  0  0  0  0
   -2.8579    4.9500    0.0000 N   0  0  0  0  0  0  0  0  0  0  0  0
   -2.1434    5.3625    0.0000 C   0  0  0  0  0  0  0  0  0  0  0  0
   -2.1434    6.1875    0.0000 C   0  0  0  0  0  0  0  0  0  0  0  0
   -1.4289    6.6000    0.0000 C   0  0  0  0  0  0  0  0  0  0  0  0
   -0.7145    6.1875    0.0000 C   0  0  0  0  0  0  0  0  0  0  0  0
   -0.7145    5.3625    0.0000 C   0  0  0  0  0  0  0  0  0  0  0  0
   -1.4289    4.9500    0.0000 C   0  0  0  0  0  0  0  0  0  0  0  0
    0.0000    6.6000    0.0000 C   0  0  0  0  0  0  0  0  0  0  0  0
    0.0000    7.4250    0.0000 O   0  0  0  0  0  0  0  0  0  0  0  0
    0.7145    6.1875    0.0000 N   0  0  0  0  0  0  0  0  0  0  0  0
    1.4289    6.6000    0.0000 C   0  0  2  0  0  0  0  0  0  0  0  0
    2.1434    6.1875    0.0000 C   0  0  0  0  0  0  0  0  0  0  0  0
    2.8579    6.6000    0.0000 C   0  0  0  0  0  0  0  0  0  0  0  0
    3.5724    6.1875    0.0000 C   0  0  0  0  0  0  0  0  0  0  0  0
    3.5724    5.3625    0.0000 O   0  0  0  0  0  0  0  0  0  0  0  0
    4.2868    6.6000    0.0000 N   0  0  0  0  0  0  0  0  0  0  0  0
    5.0013    6.1875    0.0000 C   0  0  1  0  0  0  0  0  0  0  0  0
    5.7158    6.6000    0.0000 C   0  0  0  0  0  0  0  0  0  0  0  0
    6.4302    6.1875    0.0000 C   0  0  0  0  0  0  0  0  0  0  0  0
    7.1447    6.6000    0.0000 C   0  0  0  0  0  0  0  0  0  0  0  0
    7.1447    7.4250    0.0000 O   0  0  0  0  0  0  0  0  0  0  0  0
    7.8592    6.1875    0.0000 N   0  0  0  0  0  0  0  0  0  0  0  0
    8.5737    6.6000    0.0000 C   0  0  2  0  0  0  0  0  0  0  0  0
    9.2881    6.1875    0.0000 C   0  0  0  0  0  0  0  0  0  0  0  0
   10.0026    6.6000    0.0000 C   0  0  0  0  0  0  0  0  0  0  0  0
   10.7171    6.1875    0.0000 C   0  0  0  0  0  0  0  0  0  0  0  0
   11.4315    6.6000    0.0000 O   0  0  0  0  0  0  0  0  0  0  0  0
   10.7171    5.3625    0.0000 O   0  0  0  0  0  0  0  0  0  0  0  0
    8.5737    7.4250    0.0000 C   0  0  0  0  0  0  0  0  0  0  0  0
    9.2881    7.8375    0.0000 O   0  0  0  0  0  0  0  0  0  0  0  0
    7.8592    7.8375    0.0000 O   0  0  0  0  0  0  0  0  0  0  0  0
    5.0013    5.3625    0.0000 C   0  0  0  0  0  0  0  0  0  0  0  0
    5.7158    4.9500    0.0000 O   0  0  0  0  0  0  0  0  0  0  0  0
    4.2868    4.9500    0.0000 O   0  0  0  0  0  0  0  0  0  0  0  0
    1.4289    7.4250    0.0000 C   0  0  0  0  0  0  0  0  0  0  0  0
    2.1434    7.8375    0.0000 O   0  0  0  0  0  0  0  0  0  0  0  0
    0.7145    7.8375    0.0000 O   0  0  0  0  0  0  0  0  0  0  0  0
   -3.5724    2.8875    0.0000 C   0  0  0  0  0  0  0  0  0  0  0  0
   -4.2868    2.4750    0.0000 N   0  0  0  0  0  0  0  0  0  0  0  0
   -5.7158    4.1250    0.0000 C   0  0  0  0  0  0  0  0  0  0  0  0
   -5.7158    4.9500    0.0000 O   0  0  0  0  0  0  0  0  0  0  0  0
   -6.4302    3.7125    0.0000 N   0  0  0  0  0  0  0  0  0  0  0  0
  1  2  1  0  0  0  0
  2  3  2  0  0  0  0
  3  4  1  0  0  0  0
  4  5  2  0  0  0  0
  5  6  1  0  0  0  0
  6  7  1  0  0  0  0
  7  8  2  0  0  0  0
  6  9  1  0  0  0  0
  9 10  1  6  0  0  0
 10 11  1  0  0  0  0
 11 12  1  0  0  0  0
 12 13  2  0  0  0  0
 13 14  1  0  0  0  0
 14 15  2  0  0  0  0
 15 16  1  0  0  0  0
 16 17  2  0  0  0  0
 12 17  1  0  0  0  0
 15 18  1  0  0  0  0
 18 19  2  0  0  0  0
 18 20  1  0  0  0  0
 21 20  1  1  0  0  0
 21 22  1  0  0  0  0
 22 23  1  0  0  0  0
 23 24  1  0  0  0  0
 24 25  2  0  0  0  0
 24 26  1  0  0  0  0
 27 26  1  1  0  0  0
 27 28  1  0  0  0  0
 28 29  1  0  0  0  0
 29 30  1  0  0  0  0
 30 31  2  0  0  0  0
 30 32  1  0  0  0  0
 33 32  1  1  0  0  0
 33 34  1  0  0  0  0
 34 35  1  0  0  0  0
 35 36  1  0  0  0  0
 36 37  1  0  0  0  0
 36 38  2  0  0  0  0
 33 39  1  0  0  0  0
 39 40  1  0  0  0  0
 39 41  2  0  0  0  0
 27 42  1  0  0  0  0
 42 43  1  0  0  0  0
 42 44  2  0  0  0  0
 21 45  1  0  0  0  0
 45 46  1  0  0  0  0
 45 47  2  0  0  0  0
  9 48  1  0  0  0  0
 48 49  1  0  0  0  0
  4 49  1  0  0  0  0
  5 50  1  0  0  0  0
 50 51  2  0  0  0  0
 50 52  1  0  0  0  0
  2 52  1  0  0  0  0
M  END
> <DRUGBANK_ID>
DB02067

> <DRUG_GROUPS>
experimental

> <GENERIC_NAME>
Triglu-5-Formyl-Tetrahydrofolate

> <CHEMICAL_FORMULA>
C30H37N9O13

> <MOLECULAR_WEIGHT>
731.6673

> <EXACT_MASS>
731.251082315

> <IUPAC_NAME>
(2R)-2-[(4S)-4-[(4R)-4-{[4-({[(6R)-2-amino-5-formyl-4-oxo-3,4,5,6,7,8-hexahydropteridin-6-yl]methyl}amino)phenyl]formamido}-4-carboxybutanamido]-4-carboxybutanamido]pentanedioic acid

> <IUPAC_TRADITIONAL_NAME>
(2R)-2-[(4S)-4-[(4R)-4-{[4-({[(6R)-2-amino-5-formyl-4-oxo-3,6,7,8-tetrahydropteridin-6-yl]methyl}amino)phenyl]formamido}-4-carboxybutanamido]-4-carboxybutanamido]pentanedioic acid

> <INCHI_IDENTIFIER>
InChI=1S/C30H37N9O13/c31-30-37-24-23(26(46)38-30)39(13-40)16(12-33-24)11-32-15-3-1-14(2-4-15)25(45)36-19(29(51)52)6-9-21(42)34-17(27(47)48)5-8-20(41)35-18(28(49)50)7-10-22(43)44/h1-4,13,16-19,32H,5-12H2,(H,34,42)(H,35,41)(H,36,45)(H,43,44)(H,47,48)(H,49,50)(H,51,52)(H4,31,33,37,38,46)/t16-,17+,18-,19-/m1/s1

> <INCHI_KEY>
InChIKey=ZLOMJLIQXBKNHU-FCGDIQPGSA-N

> <SMILES>
NC1=NC2=C(N(C=O)[C@H](CNC3=CC=C(C=C3)C(=O)N[C@H](CCC(=O)N[C@@H](CCC(=O)N[C@H](CCC(O)=O)C(O)=O)C(O)=O)C(O)=O)CN2)C(=O)N1

> <JCHEM_ACCEPTOR_COUNT>
17

> <JCHEM_DONOR_COUNT>
11

> <JCHEM_ACIDIC_PKA>
2.34

> <JCHEM_BASIC_PKA>
4.44

> <JCHEM_PHYSIOLOGICAL_CHARGE>
-4

> <ALOGPS_LOGP>
-1.8

> <JCHEM_LOGP>
-5.6

> <ALOGPS_LOGS>
-3.3

> <JCHEM_POLARIZABILITY>
70.48

> <JCHEM_POLAR_SURFACE_AREA>
348.35

> <JCHEM_REFRACTIVITY>
182.84

> <JCHEM_ROTATABLE_BOND_COUNT>
19

> <ALOGPS_SOLUBILITY>
3.68e-01 g/l __ 

$$$$
