
  Mrv0541 04191212182D          

 32 35  0  0  1  0            999 V2000
   12.1370   -9.5610    0.0000 C   0  0  1  0  0  0  0  0  0  0  0  0
   11.4226   -9.9735    0.0000 C   0  0  0  0  0  0  0  0  0  0  0  0
   11.4226  -10.7986    0.0000 C   0  0  1  0  0  0  0  0  0  0  0  0
   12.1370  -11.2111    0.0000 C   0  0  0  0  0  0  0  0  0  0  0  0
   12.8515  -10.7986    0.0000 C   0  0  0  0  0  0  0  0  0  0  0  0
   12.8515   -9.9735    0.0000 C   0  0  0  0  0  0  0  0  0  0  0  0
   13.5660   -9.5610    0.0000 C   0  0  0  0  0  0  0  0  0  0  0  0
   13.5660  -11.2111    0.0000 C   0  0  0  0  0  0  0  0  0  0  0  0
   14.2804  -10.7986    0.0000 C   0  0  0  0  0  0  0  0  0  0  0  0
   14.2804   -9.9735    0.0000 C   0  0  0  0  0  0  0  0  0  0  0  0
   14.2804   -8.3235    0.0000 C   0  0  0  0  0  0  0  0  0  0  0  0
   13.5660   -8.7360    0.0000 C   0  0  0  0  0  0  0  0  0  0  0  0
   14.9949   -9.5610    0.0000 C   0  0  1  0  0  0  0  0  0  0  0  0
   14.9949   -8.7360    0.0000 C   0  0  1  0  0  0  0  0  0  0  0  0
   15.7795   -8.4811    0.0000 C   0  0  2  0  0  0  0  0  0  0  0  0
   15.7795   -9.8159    0.0000 C   0  0  0  0  0  0  0  0  0  0  0  0
   16.2644   -9.1485    0.0000 C   0  0  0  0  0  0  0  0  0  0  0  0
   15.7795   -7.6561    0.0000 C   0  0  1  0  0  0  0  0  0  0  0  0
   16.4940   -7.2436    0.0000 C   0  0  0  0  0  0  0  0  0  0  0  0
   17.2085   -7.6561    0.0000 C   0  0  0  0  0  0  0  0  0  0  0  0
   17.9229   -7.2436    0.0000 C   0  0  1  0  0  0  0  0  0  0  0  0
   17.9229   -6.4186    0.0000 O   0  0  0  0  0  0  0  0  0  0  0  0
   18.6374   -7.6561    0.0000 C   0  0  0  0  0  0  0  0  0  0  0  0
   19.0499   -8.3705    0.0000 C   0  0  0  0  0  0  0  0  0  0  0  0
   19.4624   -7.6561    0.0000 C   0  0  0  0  0  0  0  0  0  0  0  0
   10.7081  -11.2111    0.0000 O   0  0  0  0  0  0  0  0  0  0  0  0
   14.9949   -7.9110    0.0000 C   0  0  0  0  0  0  0  0  0  0  0  0
   12.1370   -8.7360    0.0000 O   0  0  0  0  0  0  0  0  0  0  0  0
   14.9949  -10.3860    0.0000 H   0  0  0  0  0  0  0  0  0  0  0  0
   16.4940   -8.0686    0.0000 H   0  0  0  0  0  0  0  0  0  0  0  0
   15.0651   -7.2436    0.0000 C   0  0  0  0  0  0  0  0  0  0  0  0
   12.8515   -9.1485    0.0000 C   0  0  0  0  0  0  0  0  0  0  0  0
  1  2  1  0  0  0  0
  2  3  1  0  0  0  0
  3  4  1  0  0  0  0
  4  5  1  0  0  0  0
  1  6  1  0  0  0  0
  6  5  1  0  0  0  0
  5  8  2  0  0  0  0
  8  9  1  0  0  0  0
  9 10  2  0  0  0  0
 10 13  1  0  0  0  0
  7 10  1  0  0  0  0
 12  7  1  0  0  0  0
 11 12  1  0  0  0  0
 11 14  1  0  0  0  0
 15 14  1  0  0  0  0
 14 13  1  0  0  0  0
 13 16  1  0  0  0  0
 16 17  1  0  0  0  0
 15 17  1  0  0  0  0
 15 18  1  0  0  0  0
 18 19  1  0  0  0  0
 19 20  2  0  0  0  0
 20 21  1  0  0  0  0
 21 22  1  1  0  0  0
 21 23  1  0  0  0  0
 23 24  1  0  0  0  0
 23 25  1  0  0  0  0
 25 24  1  0  0  0  0
  3 26  1  1  0  0  0
 14 27  1  1  0  0  0
  1 28  1  6  0  0  0
 13 29  1  6  0  0  0
 15 30  1  6  0  0  0
 18 31  1  6  0  0  0
  6 32  2  0  0  0  0
M  END
> <DRUGBANK_ID>
DB02300

> <DRUG_GROUPS>
approved

> <GENERIC_NAME>
Calcipotriol

> <SYNONYMS>
Calcipotriene

> <BRANDS>
Daivonex; Dovonex

> <CHEMICAL_FORMULA>
C27H40O3

> <MOLECULAR_WEIGHT>
412.6047

> <EXACT_MASS>
412.297745146

> <IUPAC_NAME>
(1R,3S,5Z)-5-{2-[(1R,3aS,4E,7aR)-1-[(2R,3E,5S)-5-cyclopropyl-5-hydroxypent-3-en-2-yl]-7a-methyl-octahydro-1H-inden-4-ylidene]ethylidene}-4-methylidenecyclohexane-1,3-diol

> <IUPAC_TRADITIONAL_NAME>
calcipotriol

> <INCHI_IDENTIFIER>
InChI=1S/C27H40O3/c1-17(6-13-25(29)20-8-9-20)23-11-12-24-19(5-4-14-27(23,24)3)7-10-21-15-22(28)16-26(30)18(21)2/h6-7,10,13,17,20,22-26,28-30H,2,4-5,8-9,11-12,14-16H2,1,3H3/b13-6+,19-7+,21-10-/t17-,22-,23-,24+,25-,26+,27-/m1/s1

> <INCHI_KEY>
InChIKey=LWQQLNNNIPYSNX-UROSTWAQSA-N

> <SMILES>
O[C@H](\C=C\[C@@H](C)[C@@]1([H])CC[C@@]2([H])\C(CCC[C@]12C)=C\C=C1\C[C@@H](O)C[C@H](O)C1=C)C1CC1

> <JCHEM_ACCEPTOR_COUNT>
3

> <JCHEM_DONOR_COUNT>
3

> <JCHEM_ACIDIC_PKA>
14.39

> <JCHEM_BASIC_PKA>
-1.6

> <JCHEM_PHYSIOLOGICAL_CHARGE>
0

> <ALOGPS_LOGP>
4.63

> <JCHEM_LOGP>
3.84

> <ALOGPS_LOGS>
-4.5

> <JCHEM_POLARIZABILITY>
49.59

> <JCHEM_POLAR_SURFACE_AREA>
60.69

> <JCHEM_REFRACTIVITY>
125.45

> <JCHEM_ROTATABLE_BOND_COUNT>
5

> <ALOGPS_SOLUBILITY>
1.35e-02 g/l __ 

$$$$
