
  Mrv0541 02231216042D          

  7  7  0  0  0  0            999 V2000
    0.7145    2.0625    0.0000 I   0  0  0  0  0  0  0  0  0  0  0  0
    0.7145    1.2375    0.0000 C   0  0  0  0  0  0  0  0  0  0  0  0
    1.4289    0.8250    0.0000 C   0  0  0  0  0  0  0  0  0  0  0  0
    1.4289    0.0000    0.0000 C   0  0  0  0  0  0  0  0  0  0  0  0
    0.7145   -0.4125    0.0000 C   0  0  0  0  0  0  0  0  0  0  0  0
    0.0000    0.0000    0.0000 C   0  0  0  0  0  0  0  0  0  0  0  0
    0.0000    0.8250    0.0000 C   0  0  0  0  0  0  0  0  0  0  0  0
  1  2  1  0  0  0  0
  2  3  2  0  0  0  0
  3  4  1  0  0  0  0
  4  5  2  0  0  0  0
  5  6  1  0  0  0  0
  6  7  2  0  0  0  0
  2  7  1  0  0  0  0
M  END
> <DRUGBANK_ID>
DB02252

> <DRUG_GROUPS>
experimental

> <GENERIC_NAME>
Iodophenyl

> <CHEMICAL_FORMULA>
C6H5I

> <MOLECULAR_WEIGHT>
204.0084

> <EXACT_MASS>
203.94359358

> <IUPAC_NAME>
iodobenzene

> <IUPAC_TRADITIONAL_NAME>
iodophenyl

> <INCHI_IDENTIFIER>
InChI=1S/C6H5I/c7-6-4-2-1-3-5-6/h1-5H

> <INCHI_KEY>
InChIKey=SNHMUERNLJLMHN-UHFFFAOYSA-N

> <SMILES>
IC1=CC=CC=C1

> <JCHEM_ACCEPTOR_COUNT>
0

> <JCHEM_DONOR_COUNT>
0

> <JCHEM_PHYSIOLOGICAL_CHARGE>
0

> <ALOGPS_LOGP>
3

> <JCHEM_LOGP>
2.9

> <ALOGPS_LOGS>
-3.1

> <JCHEM_POLARIZABILITY>
14.22

> <JCHEM_POLAR_SURFACE_AREA>
0

> <JCHEM_REFRACTIVITY>
39.42

> <JCHEM_ROTATABLE_BOND_COUNT>
0

> <ALOGPS_SOLUBILITY>
1.45e-01 g/l __ 

$$$$
