
  Mrv0541 02231215572D          

  7  6  0  0  0  0            999 V2000
    1.2375    2.1434    0.0000 C   0  0  0  0  0  0  0  0  0  0  0  0
    0.8250    1.4289    0.0000 N   0  0  0  0  0  0  0  0  0  0  0  0
    0.0000    1.4289    0.0000 C   0  0  0  0  0  0  0  0  0  0  0  0
    1.2375    0.7145    0.0000 C   0  0  0  0  0  0  0  0  0  0  0  0
    0.8250    0.0000    0.0000 C   0  0  0  0  0  0  0  0  0  0  0  0
    1.2375   -0.7145    0.0000 O   0  0  0  0  0  0  0  0  0  0  0  0
    0.0000    0.0000    0.0000 O   0  0  0  0  0  0  0  0  0  0  0  0
  1  2  1  0  0  0  0
  2  3  1  0  0  0  0
  2  4  1  0  0  0  0
  4  5  1  0  0  0  0
  5  6  1  0  0  0  0
  5  7  2  0  0  0  0
M  END
> <DRUGBANK_ID>
DB02083

> <DRUG_GROUPS>
experimental

> <GENERIC_NAME>
Dimethylglycine

> <CHEMICAL_FORMULA>
C4H9NO2

> <MOLECULAR_WEIGHT>
103.1198

> <EXACT_MASS>
103.063328537

> <IUPAC_NAME>
2-(dimethylamino)acetic acid

> <IUPAC_TRADITIONAL_NAME>
dimethylglycine

> <INCHI_IDENTIFIER>
InChI=1S/C4H9NO2/c1-5(2)3-4(6)7/h3H2,1-2H3,(H,6,7)

> <INCHI_KEY>
InChIKey=FFDGPVCHZBVARC-UHFFFAOYSA-N

> <SMILES>
CN(C)CC(O)=O

> <JCHEM_ACCEPTOR_COUNT>
3

> <JCHEM_DONOR_COUNT>
1

> <JCHEM_ACIDIC_PKA>
1.88

> <JCHEM_BASIC_PKA>
9.69

> <JCHEM_PHYSIOLOGICAL_CHARGE>
0

> <ALOGPS_LOGP>
-1.7

> <JCHEM_LOGP>
-3.1

> <ALOGPS_LOGS>
0.96

> <JCHEM_POLARIZABILITY>
10.47

> <JCHEM_POLAR_SURFACE_AREA>
40.54

> <JCHEM_REFRACTIVITY>
26.07

> <JCHEM_ROTATABLE_BOND_COUNT>
2

> <ALOGPS_SOLUBILITY>
9.39e+02 g/l __ 

$$$$
