
  Mrv0541 02231216232D          

  9  9  0  0  0  0            999 V2000
    0.0000    2.4750    0.0000 N   0  0  0  0  0  0  0  0  0  0  0  0
    0.7145    2.0625    0.0000 C   0  0  0  0  0  0  0  0  0  0  0  0
    1.4289    2.4750    0.0000 O   0  0  0  0  0  0  0  0  0  0  0  0
    0.7145    1.2375    0.0000 C   0  0  0  0  0  0  0  0  0  0  0  0
    1.4289    0.8250    0.0000 C   0  0  0  0  0  0  0  0  0  0  0  0
    1.4289    0.0000    0.0000 C   0  0  0  0  0  0  0  0  0  0  0  0
    0.7145   -0.4125    0.0000 C   0  0  0  0  0  0  0  0  0  0  0  0
    0.0000    0.0000    0.0000 N   0  0  0  0  0  0  0  0  0  0  0  0
    0.0000    0.8250    0.0000 C   0  0  0  0  0  0  0  0  0  0  0  0
  1  2  1  0  0  0  0
  2  3  2  0  0  0  0
  2  4  1  0  0  0  0
  4  5  2  0  0  0  0
  5  6  1  0  0  0  0
  6  7  2  0  0  0  0
  7  8  1  0  0  0  0
  8  9  2  0  0  0  0
  4  9  1  0  0  0  0
M  END
> <DRUGBANK_ID>
DB02701

> <DRUG_GROUPS>
experimental

> <GENERIC_NAME>
Nicotinamide

> <CHEMICAL_FORMULA>
C6H6N2O

> <MOLECULAR_WEIGHT>
122.1246

> <EXACT_MASS>
122.048012824

> <IUPAC_NAME>
pyridine-3-carboxamide

> <IUPAC_TRADITIONAL_NAME>
nicotinamide

> <INCHI_IDENTIFIER>
InChI=1S/C6H6N2O/c7-6(9)5-2-1-3-8-4-5/h1-4H,(H2,7,9)

> <INCHI_KEY>
InChIKey=DFPAKSUCGFBDDF-UHFFFAOYSA-N

> <SMILES>
NC(=O)C1=CC=CN=C1

> <JCHEM_ACCEPTOR_COUNT>
2

> <JCHEM_DONOR_COUNT>
1

> <JCHEM_ACIDIC_PKA>
13.39

> <JCHEM_BASIC_PKA>
3.63

> <JCHEM_PHYSIOLOGICAL_CHARGE>
0

> <ALOGPS_LOGP>
-0.45

> <JCHEM_LOGP>
-0.39

> <ALOGPS_LOGS>
-0.39

> <JCHEM_POLARIZABILITY>
11.71

> <JCHEM_POLAR_SURFACE_AREA>
55.98

> <JCHEM_REFRACTIVITY>
32.98

> <JCHEM_ROTATABLE_BOND_COUNT>
1

> <ALOGPS_SOLUBILITY>
5.01e+01 g/l __ 

$$$$
