MSQ
  Mrv0541 02231216362D          

 23 25  0  0  0  0            999 V2000
   -1.0567   -0.7320    0.0000 N   0  0  0  0  0  0  0  0  0  0  0  0
   -1.0567   -1.5570    0.0000 C   0  0  0  0  0  0  0  0  0  0  0  0
   -0.3423   -1.9695    0.0000 N   0  0  0  0  0  0  0  0  0  0  0  0
    0.3722   -1.5570    0.0000 C   0  0  0  0  0  0  0  0  0  0  0  0
    0.3722   -0.7320    0.0000 C   0  0  0  0  0  0  0  0  0  0  0  0
   -0.3423   -0.3195    0.0000 C   0  0  0  0  0  0  0  0  0  0  0  0
    1.0867   -1.9695    0.0000 C   0  0  0  0  0  0  0  0  0  0  0  0
    1.8012   -1.5570    0.0000 C   0  0  0  0  0  0  0  0  0  0  0  0
    1.8012   -0.7320    0.0000 C   0  0  0  0  0  0  0  0  0  0  0  0
    1.0867   -0.3195    0.0000 C   0  0  0  0  0  0  0  0  0  0  0  0
   -0.3423    0.5055    0.0000 N   0  0  0  0  0  0  0  0  0  0  0  0
   -1.0567    0.9180    0.0000 C   0  0  0  0  0  0  0  0  0  0  0  0
   -1.7712    0.5055    0.0000 C   0  0  0  0  0  0  0  0  0  0  0  0
   -2.4857    0.9180    0.0000 C   0  0  0  0  0  0  0  0  0  0  0  0
   -2.4857    1.7430    0.0000 C   0  0  0  0  0  0  0  0  0  0  0  0
   -1.7712    2.1555    0.0000 C   0  0  0  0  0  0  0  0  0  0  0  0
   -1.0567    1.7430    0.0000 C   0  0  0  0  0  0  0  0  0  0  0  0
   -3.2001    0.5055    0.0000 S   0  0  0  0  0  0  0  0  0  0  0  0
   -3.9146    0.9180    0.0000 C   0  0  0  0  0  0  0  0  0  0  0  0
    2.5156   -1.9695    0.0000 O   0  0  0  0  0  0  0  0  0  0  0  0
    3.2301   -1.5570    0.0000 C   0  0  0  0  0  0  0  0  0  0  0  0
    2.5156   -0.3195    0.0000 O   0  0  0  0  0  0  0  0  0  0  0  0
    2.5156    0.5055    0.0000 C   0  0  0  0  0  0  0  0  0  0  0  0
  1  2  2  0  0  0  0
  1  6  1  0  0  0  0
  2  3  1  0  0  0  0
  3  4  2  0  0  0  0
  4  5  1  0  0  0  0
  4  7  1  0  0  0  0
  5  6  2  0  0  0  0
  5 10  1  0  0  0  0
  6 11  1  0  0  0  0
  7  8  2  0  0  0  0
  8  9  1  0  0  0  0
  8 20  1  0  0  0  0
  9 10  2  0  0  0  0
  9 22  1  0  0  0  0
 11 12  1  0  0  0  0
 12 13  2  0  0  0  0
 12 17  1  0  0  0  0
 13 14  1  0  0  0  0
 14 15  2  0  0  0  0
 14 18  1  0  0  0  0
 15 16  1  0  0  0  0
 16 17  2  0  0  0  0
 18 19  1  0  0  0  0
 20 21  1  0  0  0  0
 22 23  1  0  0  0  0
M  END
> <DRUGBANK_ID>
DB02984

> <DRUG_GROUPS>
experimental

> <GENERIC_NAME>
4-[3-Methylsulfanylanilino]-6,7-Dimethoxyquinazoline

> <CHEMICAL_FORMULA>
C17H17N3O2S

> <MOLECULAR_WEIGHT>
327.401

> <EXACT_MASS>
327.104147493

> <IUPAC_NAME>
6,7-dimethoxy-N-[3-(methylsulfanyl)phenyl]quinazolin-4-amine

> <IUPAC_TRADITIONAL_NAME>
6,7-dimethoxy-N-[3-(methylsulfanyl)phenyl]quinazolin-4-amine

> <INCHI_IDENTIFIER>
InChI=1S/C17H17N3O2S/c1-21-15-8-13-14(9-16(15)22-2)18-10-19-17(13)20-11-5-4-6-12(7-11)23-3/h4-10H,1-3H3,(H,18,19,20)

> <INCHI_KEY>
InChIKey=FUSDVOSGGMBSMK-UHFFFAOYSA-N

> <SMILES>
COC1=CC2=NC=NC(NC3=CC(SC)=CC=C3)=C2C=C1OC

> <JCHEM_ACCEPTOR_COUNT>
5

> <JCHEM_DONOR_COUNT>
1

> <JCHEM_ACIDIC_PKA>
16.13

> <JCHEM_BASIC_PKA>
4.62

> <JCHEM_PHYSIOLOGICAL_CHARGE>
0

> <ALOGPS_LOGP>
3.92

> <JCHEM_LOGP>
3.77

> <ALOGPS_LOGS>
-4.9

> <JCHEM_POLARIZABILITY>
35.19

> <JCHEM_POLAR_SURFACE_AREA>
56.27

> <JCHEM_REFRACTIVITY>
93.29

> <JCHEM_ROTATABLE_BOND_COUNT>
5

> <ALOGPS_SOLUBILITY>
4.55e-03 g/l __ 

$$$$
