R18
  Mrv0541 02231216372D          

 23 26  0  0  0  0            999 V2000
    1.9235   -0.6389    0.0000 C   0  0  0  0  0  0  0  0  0  0  0  0
    2.7356   -0.4937    0.0000 C   0  0  0  0  0  0  0  0  0  0  0  0
    3.0159    0.2822    0.0000 C   0  0  0  0  0  0  0  0  0  0  0  0
    2.4841    0.9129    0.0000 C   0  0  0  0  0  0  0  0  0  0  0  0
    1.6720    0.7677    0.0000 C   0  0  0  0  0  0  0  0  0  0  0  0
    1.1402    1.3984    0.0000 C   0  0  0  0  0  0  0  0  0  0  0  0
    0.3280    1.2532    0.0000 C   0  0  0  0  0  0  0  0  0  0  0  0
    0.0477    0.4773    0.0000 C   0  0  2  0  0  0  0  0  0  0  0  0
    0.5796   -0.1534    0.0000 C   0  0  0  0  0  0  0  0  0  0  0  0
    1.3917   -0.0082    0.0000 C   0  0  0  0  0  0  0  0  0  0  0  0
    0.2993   -0.9293    0.0000 C   0  0  0  0  0  0  0  0  0  0  0  0
   -0.5129   -1.0746    0.0000 C   0  0  0  0  0  0  0  0  0  0  0  0
   -1.0447   -0.4438    0.0000 C   0  0  1  0  0  0  0  0  0  0  0  0
   -0.7644    0.3321    0.0000 C   0  0  1  0  0  0  0  0  0  0  0  0
   -1.4157    0.8384    0.0000 C   0  0  0  0  0  0  0  0  0  0  0  0
   -2.0986    0.3755    0.0000 C   0  0  0  0  0  0  0  0  0  0  0  0
   -1.8692   -0.4170    0.0000 C   0  0  1  0  0  0  0  0  0  0  0  0
   -1.4045   -1.1862    0.0000 C   0  0  0  0  0  0  0  0  0  0  0  0
   -1.9906   -1.2331    0.0000 C   0  0  0  0  0  0  0  0  0  0  0  0
    3.8280    0.4274    0.0000 O   0  0  0  0  0  0  0  0  0  0  0  0
   -2.6301   -0.7359    0.0000 O   0  0  0  0  0  0  0  0  0  0  0  0
   -0.3287    0.9237    0.0000 H   0  0  0  0  0  0  0  0  0  0  0  0
   -0.6245    0.8990    0.0000 H   0  0  0  0  0  0  0  0  0  0  0  0
  1  2  1  0  0  0  0
  1 10  1  0  0  0  0
  2  3  1  0  0  0  0
  3  4  1  0  0  0  0
  3 20  2  0  0  0  0
  4  5  2  0  0  0  0
  5  6  1  0  0  0  0
  5 10  1  0  0  0  0
  6  7  1  0  0  0  0
  7  8  1  0  0  0  0
  8  9  1  0  0  0  0
  8 14  1  0  0  0  0
  8 22  1  1  0  0  0
  9 10  2  0  0  0  0
  9 11  1  0  0  0  0
 11 12  2  0  0  0  0
 12 13  1  0  0  0  0
 13 14  1  0  0  0  0
 13 17  1  0  0  0  0
 13 18  1  1  0  0  0
 14 15  1  0  0  0  0
 14 23  1  6  0  0  0
 15 16  1  0  0  0  0
 16 17  1  0  0  0  0
 17 19  1  6  0  0  0
 17 21  1  1  0  0  0
M  END
> <DRUGBANK_ID>
DB02998

> <DRUG_GROUPS>
experimental

> <GENERIC_NAME>
Methyltrienolone

> <SYNONYMS>
Metribolone

> <CHEMICAL_FORMULA>
C19H24O2

> <MOLECULAR_WEIGHT>
284.3927

> <EXACT_MASS>
284.177630012

> <IUPAC_NAME>
(10S,11S,14S,15S)-14-hydroxy-14,15-dimethyltetracyclo[8.7.0.0^{2,7}.0^{11,15}]heptadeca-1,6,16-trien-5-one

> <IUPAC_TRADITIONAL_NAME>
(10S,11S,14S,15S)-14-hydroxy-14,15-dimethyltetracyclo[8.7.0.0^{2,7}.0^{11,15}]heptadeca-1,6,16-trien-5-one

> <INCHI_IDENTIFIER>
InChI=1S/C19H24O2/c1-18-9-7-15-14-6-4-13(20)11-12(14)3-5-16(15)17(18)8-10-19(18,2)21/h7,9,11,16-17,21H,3-6,8,10H2,1-2H3/t16-,17+,18+,19+/m1/s1

> <INCHI_KEY>
InChIKey=CCCIJQPRIXGQOE-XWSJACJDSA-N

> <SMILES>
[H][C@@]12CC[C@](C)(O)[C@@]1(C)C=CC1=C3CCC(=O)C=C3CC[C@@]21[H]

> <JCHEM_ACCEPTOR_COUNT>
2

> <JCHEM_DONOR_COUNT>
1

> <JCHEM_ACIDIC_PKA>
18.9

> <JCHEM_BASIC_PKA>
-0.53

> <JCHEM_PHYSIOLOGICAL_CHARGE>
0

> <ALOGPS_LOGP>
3.11

> <JCHEM_LOGP>
2.53

> <ALOGPS_LOGS>
-3.9

> <JCHEM_POLARIZABILITY>
32.9

> <JCHEM_POLAR_SURFACE_AREA>
37.3

> <JCHEM_REFRACTIVITY>
86.29

> <JCHEM_ROTATABLE_BOND_COUNT>
0

> <ALOGPS_SOLUBILITY>
3.32e-02 g/l __ 

$$$$
