
  Mrv0541 02231216062D          

 24 24  0  0  1  0            999 V2000
   -3.1255   -4.8136    0.0000 C   0  0  0  0  0  0  0  0  0  0  0  0
   -2.4110   -4.4011    0.0000 C   0  0  0  0  0  0  0  0  0  0  0  0
   -1.6966   -4.8136    0.0000 C   0  0  0  0  0  0  0  0  0  0  0  0
   -0.9821   -4.4011    0.0000 C   0  0  0  0  0  0  0  0  0  0  0  0
   -0.2676   -4.8136    0.0000 C   0  0  0  0  0  0  0  0  0  0  0  0
    0.4468   -4.4011    0.0000 C   0  0  2  0  0  0  0  0  0  0  0  0
    0.4468   -3.5761    0.0000 O   0  0  0  0  0  0  0  0  0  0  0  0
    1.1613   -4.8136    0.0000 C   0  0  0  0  0  0  0  0  0  0  0  0
    1.8758   -4.4011    0.0000 C   0  0  0  0  0  0  0  0  0  0  0  0
    2.5902   -4.8136    0.0000 C   0  0  0  0  0  0  0  0  0  0  0  0
    3.3439   -4.4781    0.0000 C   0  0  0  0  0  0  0  0  0  0  0  0
    3.5155   -3.6711    0.0000 C   0  0  0  0  0  0  0  0  0  0  0  0
    2.9024   -3.1191    0.0000 C   0  0  0  0  0  0  0  0  0  0  0  0
    3.0739   -2.3121    0.0000 C   0  0  0  0  0  0  0  0  0  0  0  0
    2.4608   -1.7601    0.0000 C   0  0  0  0  0  0  0  0  0  0  0  0
    2.6323   -0.9531    0.0000 C   0  0  0  0  0  0  0  0  0  0  0  0
    2.0192   -0.4011    0.0000 C   0  0  0  0  0  0  0  0  0  0  0  0
    2.1907    0.4059    0.0000 C   0  0  0  0  0  0  0  0  0  0  0  0
    1.5777    0.9579    0.0000 O   0  0  0  0  0  0  0  0  0  0  0  0
    2.9754    0.6608    0.0000 O   0  0  0  0  0  0  0  0  0  0  0  0
    3.8960   -5.0912    0.0000 C   0  0  0  0  0  0  0  0  0  0  0  0
    4.7164   -5.0049    0.0000 O   0  0  0  0  0  0  0  0  0  0  0  0
    3.4835   -5.8056    0.0000 C   0  0  0  0  0  0  0  0  0  0  0  0
    2.6765   -5.6341    0.0000 C   0  0  0  0  0  0  0  0  0  0  0  0
  1  2  1  0  0  0  0
  2  3  1  0  0  0  0
  3  4  1  0  0  0  0
  4  5  1  0  0  0  0
  5  6  1  0  0  0  0
  6  7  1  6  0  0  0
  6  8  1  0  0  0  0
  8  9  2  0  0  0  0
  9 10  1  0  0  0  0
 10 11  2  0  0  0  0
 11 12  1  0  0  0  0
 12 13  1  0  0  0  0
 13 14  2  0  0  0  0
 14 15  1  0  0  0  0
 15 16  1  0  0  0  0
 16 17  1  0  0  0  0
 17 18  1  0  0  0  0
 18 19  1  0  0  0  0
 18 20  2  0  0  0  0
 11 21  1  0  0  0  0
 21 22  2  0  0  0  0
 21 23  1  0  0  0  0
 23 24  1  0  0  0  0
 10 24  1  0  0  0  0
M  END
> <DRUGBANK_ID>
DB02304

> <DRUG_GROUPS>
experimental

> <GENERIC_NAME>
Prostaglandin B2

> <CHEMICAL_FORMULA>
C20H30O4

> <MOLECULAR_WEIGHT>
334.4498

> <EXACT_MASS>
334.214409448

> <IUPAC_NAME>
(5E)-7-{2-[(1E,3S)-3-hydroxyoct-1-en-1-yl]-5-oxocyclopent-1-en-1-yl}hept-5-enoic acid

> <IUPAC_TRADITIONAL_NAME>
prostaglandin B2

> <INCHI_IDENTIFIER>
InChI=1S/C20H30O4/c1-2-3-6-9-17(21)14-12-16-13-15-19(22)18(16)10-7-4-5-8-11-20(23)24/h4,7,12,14,17,21H,2-3,5-6,8-11,13,15H2,1H3,(H,23,24)/b7-4+,14-12+/t17-/m0/s1

> <INCHI_KEY>
InChIKey=PRFXRIUZNKLRHM-OSJNIVAESA-N

> <SMILES>
CCCCC[C@H](O)\C=C\C1=C(C\C=C\CCCC(O)=O)C(=O)CC1

> <JCHEM_ACCEPTOR_COUNT>
4

> <JCHEM_DONOR_COUNT>
2

> <JCHEM_ACIDIC_PKA>
4.25

> <JCHEM_BASIC_PKA>
-1.6

> <JCHEM_PHYSIOLOGICAL_CHARGE>
-1

> <ALOGPS_LOGP>
4.07

> <JCHEM_LOGP>
4.18

> <ALOGPS_LOGS>
-4

> <JCHEM_POLARIZABILITY>
39.54

> <JCHEM_POLAR_SURFACE_AREA>
74.6

> <JCHEM_REFRACTIVITY>
98.61

> <JCHEM_ROTATABLE_BOND_COUNT>
12

> <ALOGPS_SOLUBILITY>
2.99e-02 g/l __ 

$$$$
