
  Mrv0541 02231216222D          

 11 10  0  0  1  0            999 V2000
    1.7605    1.0164    0.0000 C   0  0  0  0  0  0  0  0  0  0  0  0
    2.4750    1.4289    0.0000 P   0  0  1  0  0  0  0  0  0  0  0  0
    2.8875    0.7145    0.0000 O   0  0  0  0  0  0  0  0  0  0  0  0
    2.0625    2.1434    0.0000 O   0  0  0  0  0  0  0  0  0  0  0  0
    3.1895    1.8414    0.0000 C   0  0  0  0  0  0  0  0  0  0  0  0
    3.9039    1.4289    0.0000 C   0  0  0  0  0  0  0  0  0  0  0  0
    4.6184    1.8414    0.0000 C   0  0  1  0  0  0  0  0  0  0  0  0
    4.6184    2.6664    0.0000 N   0  0  0  0  0  0  0  0  0  0  0  0
    5.3329    1.4289    0.0000 C   0  0  0  0  0  0  0  0  0  0  0  0
    6.0474    1.8414    0.0000 O   0  0  0  0  0  0  0  0  0  0  0  0
    5.3329    0.6039    0.0000 O   0  0  0  0  0  0  0  0  0  0  0  0
  2  1  1  1  0  0  0
  2  3  1  6  0  0  0
  2  4  2  0  0  0  0
  2  5  1  0  0  0  0
  5  6  1  0  0  0  0
  6  7  1  0  0  0  0
  7  8  1  1  0  0  0
  7  9  1  0  0  0  0
  9 10  1  0  0  0  0
  9 11  2  0  0  0  0
M  END
> <DRUGBANK_ID>
DB02663

> <DRUG_GROUPS>
experimental

> <GENERIC_NAME>
2-Amino-4-(Hydroxymethyl-Phosphinyl)Butanoic Acid

> <CHEMICAL_FORMULA>
C5H12NO4P

> <MOLECULAR_WEIGHT>
181.1268

> <EXACT_MASS>
181.050394389

> <IUPAC_NAME>
(2R)-2-amino-4-[hydroxy(methyl)phosphoryl]butanoic acid

> <IUPAC_TRADITIONAL_NAME>
(2R)-2-amino-4-[hydroxy(methyl)phosphoryl]butanoic acid

> <INCHI_IDENTIFIER>
InChI=1S/C5H12NO4P/c1-11(9,10)3-2-4(6)5(7)8/h4H,2-3,6H2,1H3,(H,7,8)(H,9,10)/t4-/m1/s1

> <INCHI_KEY>
InChIKey=IAJOBQBIJHVGMQ-SCSAIBSYSA-N

> <SMILES>
C[P@@](O)(=O)CC[C@@H](N)C(O)=O

> <JCHEM_ACCEPTOR_COUNT>
5

> <JCHEM_DONOR_COUNT>
3

> <JCHEM_ACIDIC_PKA>
1.86

> <JCHEM_BASIC_PKA>
9.53

> <JCHEM_PHYSIOLOGICAL_CHARGE>
-1

> <ALOGPS_LOGP>
-2.5

> <JCHEM_LOGP>
-3.8

> <ALOGPS_LOGS>
-0.59

> <JCHEM_POLARIZABILITY>
16.03

> <JCHEM_POLAR_SURFACE_AREA>
100.62

> <JCHEM_REFRACTIVITY>
39.66

> <JCHEM_ROTATABLE_BOND_COUNT>
4

> <ALOGPS_SOLUBILITY>
4.63e+01 g/l __ 

$$$$
