
  Mrv0541 02231216002D          

  5  4  0  0  0  0            999 V2000
    2.4750   -1.4289    0.0000 C   0  0  0  0  0  0  0  0  0  0  0  0
    2.0625   -0.7145    0.0000 C   0  0  0  0  0  0  0  0  0  0  0  0
    1.2375   -0.7145    0.0000 C   0  0  0  0  0  0  0  0  0  0  0  0
    0.8250    0.0000    0.0000 C   0  0  0  0  0  0  0  0  0  0  0  0
    0.0000    0.0000    0.0000 O   0  0  0  0  0  0  0  0  0  0  0  0
  1  2  1  0  0  0  0
  2  3  1  0  0  0  0
  3  4  1  0  0  0  0
  4  5  1  0  0  0  0
M  END
> <DRUGBANK_ID>
DB02145

> <DRUG_GROUPS>
experimental

> <GENERIC_NAME>
Butan-1-Ol

> <CHEMICAL_FORMULA>
C4H10O

> <MOLECULAR_WEIGHT>
74.1216

> <EXACT_MASS>
74.073164942

> <IUPAC_NAME>
butan-1-ol

> <IUPAC_TRADITIONAL_NAME>
butan-1-ol

> <INCHI_IDENTIFIER>
InChI=1S/C4H10O/c1-2-3-4-5/h5H,2-4H2,1H3

> <INCHI_KEY>
InChIKey=LRHPLDYGYMQRHN-UHFFFAOYSA-N

> <SMILES>
CCCCO

> <JCHEM_ACCEPTOR_COUNT>
1

> <JCHEM_DONOR_COUNT>
1

> <JCHEM_ACIDIC_PKA>
16.95

> <JCHEM_BASIC_PKA>
-1.9

> <JCHEM_PHYSIOLOGICAL_CHARGE>
0

> <ALOGPS_LOGP>
0.84

> <JCHEM_LOGP>
0.81

> <ALOGPS_LOGS>
0.33

> <JCHEM_POLARIZABILITY>
9.21

> <JCHEM_POLAR_SURFACE_AREA>
20.23

> <JCHEM_REFRACTIVITY>
22.13

> <JCHEM_ROTATABLE_BOND_COUNT>
2

> <ALOGPS_SOLUBILITY>
1.58e+02 g/l __ 

$$$$
