
  Mrv0541 02231216132D          

 18 18  0  0  1  0            999 V2000
   -1.4289   -2.4750    0.0000 O   0  0  0  0  0  0  0  0  0  0  0  0
   -1.4289   -1.6500    0.0000 C   0  0  2  0  0  0  0  0  0  0  0  0
   -0.7145   -1.2375    0.0000 C   0  0  0  0  0  0  0  0  0  0  0  0
    0.0000   -1.6500    0.0000 O   0  0  0  0  0  0  0  0  0  0  0  0
    0.7145   -1.2375    0.0000 P   0  0  0  0  0  0  0  0  0  0  0  0
    1.4289   -0.8250    0.0000 O   0  0  0  0  0  0  0  0  0  0  0  0
    0.3020   -0.5230    0.0000 O   0  0  0  0  0  0  0  0  0  0  0  0
    1.1270   -1.9520    0.0000 O   0  0  0  0  0  0  0  0  0  0  0  0
   -2.1434   -1.2375    0.0000 C   0  0  2  0  0  0  0  0  0  0  0  0
   -2.8579   -1.6500    0.0000 O   0  0  0  0  0  0  0  0  0  0  0  0
   -3.5724   -1.2375    0.0000 C   0  0  2  0  0  0  0  0  0  0  0  0
   -4.2868   -1.6500    0.0000 O   0  0  0  0  0  0  0  0  0  0  0  0
   -3.5724   -0.4125    0.0000 C   0  0  1  0  0  0  0  0  0  0  0  0
   -4.2868    0.0000    0.0000 O   0  0  0  0  0  0  0  0  0  0  0  0
   -2.8579    0.0000    0.0000 C   0  0  2  0  0  0  0  0  0  0  0  0
   -2.8579    0.8250    0.0000 O   0  0  0  0  0  0  0  0  0  0  0  0
   -2.1434   -0.4125    0.0000 C   0  0  1  0  0  0  0  0  0  0  0  0
   -1.4289    0.0000    0.0000 O   0  0  0  0  0  0  0  0  0  0  0  0
  2  1  1  1  0  0  0
  2  3  1  0  0  0  0
  3  4  1  0  0  0  0
  4  5  1  0  0  0  0
  5  6  1  0  0  0  0
  5  7  1  0  0  0  0
  5  8  2  0  0  0  0
  9  2  1  6  0  0  0
  9 10  1  0  0  0  0
 10 11  1  0  0  0  0
 11 12  1  6  0  0  0
 11 13  1  0  0  0  0
 13 14  1  1  0  0  0
 13 15  1  0  0  0  0
 15 16  1  6  0  0  0
 15 17  1  0  0  0  0
  9 17  1  0  0  0  0
 17 18  1  1  0  0  0
M  END
> <DRUGBANK_ID>
DB02470

> <DRUG_GROUPS>
experimental

> <GENERIC_NAME>
D-Glycero-D-Mannopyranose-7-Phosphate

> <CHEMICAL_FORMULA>
C7H15O10P

> <MOLECULAR_WEIGHT>
290.1618

> <EXACT_MASS>
290.040283212

> <IUPAC_NAME>
[(2R)-2-hydroxy-2-[(2S,3R,4R,5S,6S)-3,4,5,6-tetrahydroxyoxan-2-yl]ethoxy]phosphonic acid

> <IUPAC_TRADITIONAL_NAME>
(2R)-2-hydroxy-2-[(2S,3R,4R,5S,6S)-3,4,5,6-tetrahydroxyoxan-2-yl]ethoxyphosphonic acid

> <INCHI_IDENTIFIER>
InChI=1S/C7H15O10P/c8-2(1-16-18(13,14)15)6-4(10)3(9)5(11)7(12)17-6/h2-12H,1H2,(H2,13,14,15)/t2-,3-,4-,5+,6+,7+/m1/s1

> <INCHI_KEY>
InChIKey=SDADNVAZGVDAIM-MAFUWASYSA-N

> <SMILES>
O[C@H](COP(O)(O)=O)[C@@H]1O[C@H](O)[C@@H](O)[C@H](O)[C@H]1O

> <JCHEM_ACCEPTOR_COUNT>
9

> <JCHEM_DONOR_COUNT>
7

> <JCHEM_ACIDIC_PKA>
1.49

> <JCHEM_BASIC_PKA>
-3.5

> <JCHEM_PHYSIOLOGICAL_CHARGE>
-2

> <ALOGPS_LOGP>
-2.3

> <JCHEM_LOGP>
-3.7

> <ALOGPS_LOGS>
-0.92

> <JCHEM_POLARIZABILITY>
23.46

> <JCHEM_POLAR_SURFACE_AREA>
177.14

> <JCHEM_REFRACTIVITY>
52.76

> <JCHEM_ROTATABLE_BOND_COUNT>
4

> <ALOGPS_SOLUBILITY>
3.46e+01 g/l __ 

$$$$
