
  Mrv0541 02231216362D          

 11 11  0  0  0  0            999 V2000
    0.7145   -2.0625    0.0000 O    0  0  0  0  0  0  0  0  0  0  0  0
    0.7145   -1.2375    0.0000 S    0  0  0  0  0  0  0  0  0  0  0  0
    1.5395   -1.2375    0.0000 O    0  0  0  0  0  0  0  0  0  0  0  0
   -0.1105   -1.2375    0.0000 O    0  0  0  0  0  0  0  0  0  0  0  0
    0.7145   -0.4125    0.0000 C    0  0  0  0  0  0  0  0  0  0  0  0
    0.0000    0.0000    0.0000 C    0  0  0  0  0  0  0  0  0  0  0  0
    0.0000    0.8250    0.0000 C    0  0  0  0  0  0  0  0  0  0  0  0
    0.7145    1.2375    0.0000 C    0  0  0  0  0  0  0  0  0  0  0  0
    0.7145    2.0625    0.0000 Hg   0  0  0  0  0  0  0  0  0  0  0  0
    1.4289    0.8250    0.0000 C    0  0  0  0  0  0  0  0  0  0  0  0
    1.4289    0.0000    0.0000 C    0  0  0  0  0  0  0  0  0  0  0  0
  1  2  1  0  0  0  0
  2  3  2  0  0  0  0
  2  4  2  0  0  0  0
  2  5  1  0  0  0  0
  5  6  2  0  0  0  0
  6  7  1  0  0  0  0
  7  8  2  0  0  0  0
  8  9  1  0  0  0  0
  8 10  1  0  0  0  0
 10 11  2  0  0  0  0
  5 11  1  0  0  0  0
M  END
> <DRUGBANK_ID>
DB02983

> <DRUG_GROUPS>
experimental

> <GENERIC_NAME>
Para-Mercury-Benzenesulfonic Acid

> <CHEMICAL_FORMULA>
C6H5HgO3S

> <MOLECULAR_WEIGHT>
357.76

> <EXACT_MASS>
358.96656532

> <IUPAC_NAME>
(4-sulfophenyl)mercury

> <IUPAC_TRADITIONAL_NAME>
(4-sulfophenyl)mercury

> <INCHI_IDENTIFIER>
InChI=1S/C6H5O3S.Hg/c7-10(8,9)6-4-2-1-3-5-6;/h2-5H,(H,7,8,9);

> <INCHI_KEY>
InChIKey=KQAOIKIZSJJTII-UHFFFAOYSA-N

> <SMILES>
OS(=O)(=O)C1=CC=C([Hg])C=C1

> <JCHEM_ACCEPTOR_COUNT>
3

> <JCHEM_DONOR_COUNT>
1

> <JCHEM_ACIDIC_PKA>
-2.5

> <JCHEM_PHYSIOLOGICAL_CHARGE>
-1

> <ALOGPS_LOGP>
-1.1

> <JCHEM_LOGP>
-0.3

> <ALOGPS_LOGS>
-1.6

> <JCHEM_POLARIZABILITY>
16.18

> <JCHEM_POLAR_SURFACE_AREA>
54.37

> <JCHEM_REFRACTIVITY>
36.1

> <JCHEM_ROTATABLE_BOND_COUNT>
1

> <ALOGPS_SOLUBILITY>
9.70e+00 g/l __ 

$$$$
