
  Mrv0541 02231216062D          

 52 51  0  0  1  0            999 V2000
   15.3730    9.7006    0.0000 C   0  0  0  0  0  0  0  0  0  0  0  0
   16.0875    9.2881    0.0000 C   0  0  0  0  0  0  0  0  0  0  0  0
   16.8020    9.7006    0.0000 C   0  0  0  0  0  0  0  0  0  0  0  0
   17.5164    9.2881    0.0000 C   0  0  0  0  0  0  0  0  0  0  0  0
   18.2309    9.7006    0.0000 C   0  0  0  0  0  0  0  0  0  0  0  0
   18.9454    9.2881    0.0000 C   0  0  0  0  0  0  0  0  0  0  0  0
   19.6599    9.7006    0.0000 C   0  0  0  0  0  0  0  0  0  0  0  0
   20.3743    9.2881    0.0000 C   0  0  0  0  0  0  0  0  0  0  0  0
   21.0888    9.7006    0.0000 C   0  0  0  0  0  0  0  0  0  0  0  0
   21.8033    9.2881    0.0000 C   0  0  0  0  0  0  0  0  0  0  0  0
   22.5177    9.7006    0.0000 C   0  0  0  0  0  0  0  0  0  0  0  0
   23.2322    9.2881    0.0000 C   0  0  0  0  0  0  0  0  0  0  0  0
   23.9467    9.7006    0.0000 C   0  0  0  0  0  0  0  0  0  0  0  0
   24.6612    9.2881    0.0000 C   0  0  0  0  0  0  0  0  0  0  0  0
   25.3756    9.7006    0.0000 C   0  0  0  0  0  0  0  0  0  0  0  0
   26.0901    9.2881    0.0000 C   0  0  0  0  0  0  0  0  0  0  0  0
   26.0901    8.4631    0.0000 O   0  0  0  0  0  0  0  0  0  0  0  0
   26.8046    9.7006    0.0000 O   0  0  0  0  0  0  0  0  0  0  0  0
   27.5190    9.2881    0.0000 C   0  0  0  0  0  0  0  0  0  0  0  0
   28.2335    9.7006    0.0000 C   0  0  1  0  0  0  0  0  0  0  0  0
   28.2335   10.5256    0.0000 C   0  0  0  0  0  0  0  0  0  0  0  0
   28.9480   10.9381    0.0000 O   0  0  0  0  0  0  0  0  0  0  0  0
   28.9480   11.7631    0.0000 P   0  0  1  0  0  0  0  0  0  0  0  0
   28.1230   11.7631    0.0000 O   0  5  0  0  0  0  0  0  0  0  0  0
   29.7730   11.7631    0.0000 O   0  0  0  0  0  0  0  0  0  0  0  0
   28.9480   12.5881    0.0000 O   0  0  0  0  0  0  0  0  0  0  0  0
   29.6624   13.0006    0.0000 C   0  0  0  0  0  0  0  0  0  0  0  0
   29.6624   13.8256    0.0000 C   0  0  0  0  0  0  0  0  0  0  0  0
   30.3769   14.2381    0.0000 N   0  3  0  0  0  0  0  0  0  0  0  0
   30.7894   13.5237    0.0000 C   0  0  0  0  0  0  0  0  0  0  0  0
   29.9644   14.9526    0.0000 C   0  0  0  0  0  0  0  0  0  0  0  0
   31.0914   14.6506    0.0000 C   0  0  0  0  0  0  0  0  0  0  0  0
   28.9480    9.2881    0.0000 O   0  0  0  0  0  0  0  0  0  0  0  0
   29.6624    9.7006    0.0000 C   0  0  0  0  0  0  0  0  0  0  0  0
   29.6624   10.5256    0.0000 O   0  0  0  0  0  0  0  0  0  0  0  0
   30.3769    9.2881    0.0000 C   0  0  0  0  0  0  0  0  0  0  0  0
   31.0914    9.7006    0.0000 C   0  0  0  0  0  0  0  0  0  0  0  0
   31.8059    9.2881    0.0000 C   0  0  0  0  0  0  0  0  0  0  0  0
   32.5203    9.7006    0.0000 C   0  0  0  0  0  0  0  0  0  0  0  0
   33.2348    9.2881    0.0000 C   0  0  0  0  0  0  0  0  0  0  0  0
   33.9493    9.7006    0.0000 C   0  0  0  0  0  0  0  0  0  0  0  0
   34.6637    9.2881    0.0000 C   0  0  0  0  0  0  0  0  0  0  0  0
   35.3782    9.7006    0.0000 C   0  0  0  0  0  0  0  0  0  0  0  0
   36.0927    9.2881    0.0000 C   0  0  0  0  0  0  0  0  0  0  0  0
   36.8072    9.7006    0.0000 C   0  0  0  0  0  0  0  0  0  0  0  0
   36.8072   10.5256    0.0000 C   0  0  0  0  0  0  0  0  0  0  0  0
   37.5216   10.9381    0.0000 C   0  0  0  0  0  0  0  0  0  0  0  0
   37.5216   11.7631    0.0000 C   0  0  0  0  0  0  0  0  0  0  0  0
   38.2361   12.1756    0.0000 C   0  0  0  0  0  0  0  0  0  0  0  0
   38.2361   13.0006    0.0000 C   0  0  0  0  0  0  0  0  0  0  0  0
   38.9506   13.4131    0.0000 C   0  0  0  0  0  0  0  0  0  0  0  0
   38.9506   14.2381    0.0000 C   0  0  0  0  0  0  0  0  0  0  0  0
  1  2  1  0  0  0  0
  2  3  1  0  0  0  0
  3  4  1  0  0  0  0
  4  5  1  0  0  0  0
  5  6  1  0  0  0  0
  6  7  1  0  0  0  0
  7  8  1  0  0  0  0
  8  9  1  0  0  0  0
  9 10  1  0  0  0  0
 10 11  1  0  0  0  0
 11 12  1  0  0  0  0
 12 13  1  0  0  0  0
 13 14  1  0  0  0  0
 14 15  1  0  0  0  0
 15 16  1  0  0  0  0
 16 17  2  0  0  0  0
 16 18  1  0  0  0  0
 18 19  1  0  0  0  0
 19 20  1  0  0  0  0
 20 21  1  0  0  0  0
 21 22  1  0  0  0  0
 23 22  1  6  0  0  0
 23 24  1  1  0  0  0
 23 25  2  0  0  0  0
 23 26  1  0  0  0  0
 26 27  1  0  0  0  0
 27 28  1  0  0  0  0
 28 29  1  0  0  0  0
 29 30  1  0  0  0  0
 29 31  1  0  0  0  0
 29 32  1  0  0  0  0
 20 33  1  1  0  0  0
 33 34  1  0  0  0  0
 34 35  2  0  0  0  0
 34 36  1  0  0  0  0
 36 37  1  0  0  0  0
 37 38  1  0  0  0  0
 38 39  1  0  0  0  0
 39 40  1  0  0  0  0
 40 41  1  0  0  0  0
 41 42  1  0  0  0  0
 42 43  1  0  0  0  0
 43 44  2  0  0  0  0
 44 45  1  0  0  0  0
 45 46  1  0  0  0  0
 46 47  2  0  0  0  0
 47 48  1  0  0  0  0
 48 49  1  0  0  0  0
 49 50  1  0  0  0  0
 50 51  1  0  0  0  0
 51 52  1  0  0  0  0
M  END
> <DRUGBANK_ID>
DB02306

> <DRUG_GROUPS>
experimental

> <GENERIC_NAME>
Palmitoyl-Linoleoyl Phosphatidylcholine

> <CHEMICAL_FORMULA>
C42H80NO8P

> <MOLECULAR_WEIGHT>
758.0603

> <EXACT_MASS>
757.562155053

> <IUPAC_NAME>
(2-{[(S)-((2S)-3-(hexadecanoyloxy)-2-[(9E,12E)-octadeca-9,12-dienoyloxy]propyl phosphonato)]oxy}ethyl)trimethylazanium

> <IUPAC_TRADITIONAL_NAME>
(2-{[(S)-((2S)-3-(hexadecanoyloxy)-2-[(9E,12E)-octadeca-9,12-dienoyloxy]propyl phosphonato)]oxy}ethyl)trimethylazanium

> <INCHI_IDENTIFIER>
InChI=1S/C42H80NO8P/c1-6-8-10-12-14-16-18-20-21-23-25-27-29-31-33-35-42(45)51-40(39-50-52(46,47)49-37-36-43(3,4)5)38-48-41(44)34-32-30-28-26-24-22-19-17-15-13-11-9-7-2/h14,16,20-21,40H,6-13,15,17-19,22-39H2,1-5H3/b16-14+,21-20+/t40-/m0/s1

> <INCHI_KEY>
InChIKey=JLPULHDHAOZNQI-GSZNELEDSA-N

> <SMILES>
CCCCCCCCCCCCCCCC(=O)OC[C@@H](CO[P@](=O)([O-])OCC[N+](C)(C)C)OC(=O)CCCCCCC\C=C\C\C=C\CCCCC

> <JCHEM_ACCEPTOR_COUNT>
4

> <JCHEM_DONOR_COUNT>
0

> <JCHEM_ACIDIC_PKA>
1.86

> <JCHEM_BASIC_PKA>
-6.7

> <JCHEM_PHYSIOLOGICAL_CHARGE>
0

> <ALOGPS_LOGP>
5.48

> <JCHEM_LOGP>
8.28

> <ALOGPS_LOGS>
-7.5

> <JCHEM_POLARIZABILITY>
94.29

> <JCHEM_POLAR_SURFACE_AREA>
111.19

> <JCHEM_REFRACTIVITY>
227.3

> <JCHEM_ROTATABLE_BOND_COUNT>
40

> <ALOGPS_SOLUBILITY>
2.53e-05 g/l __ 

$$$$
