
  Mrv0541 02231216112D          

 14 14  0  0  0  0            999 V2000
    1.4289   -1.6500    0.0000 N   0  0  0  0  0  0  0  0  0  0  0  0
    0.7145   -1.2375    0.0000 C   0  0  0  0  0  0  0  0  0  0  0  0
    0.7145   -0.4125    0.0000 C   0  0  0  0  0  0  0  0  0  0  0  0
    0.0000    0.0000    0.0000 C   0  0  0  0  0  0  0  0  0  0  0  0
    0.0000    0.8250    0.0000 C   0  0  0  0  0  0  0  0  0  0  0  0
    0.7145    1.2375    0.0000 C   0  0  0  0  0  0  0  0  0  0  0  0
    0.7145    2.0625    0.0000 N   0  0  0  0  0  0  0  0  0  0  0  0
    0.0000    2.4750    0.0000 C   0  0  0  0  0  0  0  0  0  0  0  0
   -0.7145    2.0625    0.0000 O   0  0  0  0  0  0  0  0  0  0  0  0
    0.0000    3.3000    0.0000 C   0  0  0  0  0  0  0  0  0  0  0  0
   -0.7145    3.7125    0.0000 O   0  0  0  0  0  0  0  0  0  0  0  0
    0.7145    3.7125    0.0000 O   0  0  0  0  0  0  0  0  0  0  0  0
    1.4289    0.8250    0.0000 C   0  0  0  0  0  0  0  0  0  0  0  0
    1.4289    0.0000    0.0000 C   0  0  0  0  0  0  0  0  0  0  0  0
  1  2  1  0  0  0  0
  2  3  1  0  0  0  0
  3  4  2  0  0  0  0
  4  5  1  0  0  0  0
  5  6  2  0  0  0  0
  6  7  1  0  0  0  0
  7  8  1  0  0  0  0
  8  9  2  0  0  0  0
  8 10  1  0  0  0  0
 10 11  1  0  0  0  0
 10 12  2  0  0  0  0
  6 13  1  0  0  0  0
 13 14  2  0  0  0  0
  3 14  1  0  0  0  0
M  END
> <DRUGBANK_ID>
DB02420

> <DRUG_GROUPS>
experimental

> <GENERIC_NAME>
[[4-(Aminomethyl)Phenyl]Amino]Oxo-Acetic Acid,

> <CHEMICAL_FORMULA>
C9H10N2O3

> <MOLECULAR_WEIGHT>
194.1873

> <EXACT_MASS>
194.069142196

> <IUPAC_NAME>
{[4-(aminomethyl)phenyl]carbamoyl}formic acid

> <IUPAC_TRADITIONAL_NAME>
{[4-(aminomethyl)phenyl]carbamoyl}formic acid

> <INCHI_IDENTIFIER>
InChI=1S/C9H10N2O3/c10-5-6-1-3-7(4-2-6)11-8(12)9(13)14/h1-4H,5,10H2,(H,11,12)(H,13,14)

> <INCHI_KEY>
InChIKey=RKILOCCSAVHHJT-UHFFFAOYSA-N

> <SMILES>
NCC1=CC=C(NC(=O)C(O)=O)C=C1

> <JCHEM_ACCEPTOR_COUNT>
4

> <JCHEM_DONOR_COUNT>
3

> <JCHEM_ACIDIC_PKA>
2.52

> <JCHEM_BASIC_PKA>
9.47

> <JCHEM_PHYSIOLOGICAL_CHARGE>
0

> <ALOGPS_LOGP>
-1.9

> <JCHEM_LOGP>
-2

> <ALOGPS_LOGS>
-2.4

> <JCHEM_POLARIZABILITY>
19.21

> <JCHEM_POLAR_SURFACE_AREA>
92.42

> <JCHEM_REFRACTIVITY>
51.19

> <JCHEM_ROTATABLE_BOND_COUNT>
3

> <ALOGPS_SOLUBILITY>
7.70e-01 g/l __ 

$$$$
