SLE
  Mrv0541 02231216372D          

 11 10  0  0  0  0            999 V2000
   -1.3810    0.4744    0.0000 C   0  0  0  0  0  0  0  0  0  0  0  0
   -2.0955    0.0619    0.0000 O   0  0  0  0  0  0  0  0  0  0  0  0
   -1.3810    1.2994    0.0000 O   0  0  0  0  0  0  0  0  0  0  0  0
   -0.6666    0.0619    0.0000 C   0  0  1  0  0  0  0  0  0  0  0  0
   -0.6666   -0.7631    0.0000 C   0  0  0  0  0  0  0  0  0  0  0  0
   -1.3810   -1.1756    0.0000 S   0  0  0  0  0  0  0  0  0  0  0  0
    0.0479    0.4744    0.0000 C   0  0  0  0  0  0  0  0  0  0  0  0
    0.7624    0.0619    0.0000 C   0  0  0  0  0  0  0  0  0  0  0  0
    1.4769    0.4744    0.0000 C   0  0  0  0  0  0  0  0  0  0  0  0
    0.7624   -0.7631    0.0000 C   0  0  0  0  0  0  0  0  0  0  0  0
   -1.1723   -0.2301    0.0000 H   0  0  0  0  0  0  0  0  0  0  0  0
  1  2  2  0  0  0  0
  1  3  1  0  0  0  0
  1  4  1  0  0  0  0
  4  5  1  0  0  0  0
  4  7  1  1  0  0  0
  4 11  1  1  0  0  0
  5  6  1  0  0  0  0
  7  8  1  0  0  0  0
  8  9  1  0  0  0  0
  8 10  1  0  0  0  0
M  END
> <DRUGBANK_ID>
DB02996

> <DRUG_GROUPS>
experimental

> <GENERIC_NAME>
2-(Thiomethylene)-4-Methylpentanoic Acid

> <CHEMICAL_FORMULA>
C7H14O2S

> <MOLECULAR_WEIGHT>
162.25

> <EXACT_MASS>
162.071450382

> <IUPAC_NAME>
(2S)-4-methyl-2-(sulfanylmethyl)pentanoic acid

> <IUPAC_TRADITIONAL_NAME>
(2S)-4-methyl-2-(sulfanylmethyl)pentanoic acid

> <INCHI_IDENTIFIER>
InChI=1S/C7H14O2S/c1-5(2)3-6(4-10)7(8)9/h5-6,10H,3-4H2,1-2H3,(H,8,9)/t6-/m1/s1

> <INCHI_KEY>
InChIKey=GCTDRFXPPSVRRP-ZCFIWIBFSA-N

> <SMILES>
[H][C@](CS)(CC(C)C)C(O)=O

> <JCHEM_ACCEPTOR_COUNT>
2

> <JCHEM_DONOR_COUNT>
2

> <JCHEM_ACIDIC_PKA>
4.91

> <JCHEM_BASIC_PKA>
-9.6

> <JCHEM_PHYSIOLOGICAL_CHARGE>
-1

> <ALOGPS_LOGP>
2.1

> <JCHEM_LOGP>
2.17

> <ALOGPS_LOGS>
-1.9

> <JCHEM_POLARIZABILITY>
17.75

> <JCHEM_POLAR_SURFACE_AREA>
37.3

> <JCHEM_REFRACTIVITY>
43.4

> <JCHEM_ROTATABLE_BOND_COUNT>
4

> <ALOGPS_SOLUBILITY>
1.80e+00 g/l __ 

$$$$
