
  Mrv0541 02231216002D          

 33 33  0  0  1  0            999 V2000
   15.4204   -6.9607    0.0000 C   0  0  0  0  0  0  0  0  0  0  0  0
   14.6103   -6.8048    0.0000 C   0  0  0  0  0  0  0  0  0  0  0  0
   14.3403   -6.0253    0.0000 N   0  0  0  0  0  0  0  0  0  0  0  0
   13.5301   -5.8694    0.0000 C   0  0  0  0  0  0  0  0  0  0  0  0
   12.9900   -6.4930    0.0000 N   0  0  0  0  0  0  0  0  0  0  0  0
   12.1799   -6.3371    0.0000 C   0  0  0  0  0  0  0  0  0  0  0  0
   11.6398   -6.9607    0.0000 N   0  0  0  0  0  0  0  0  0  0  0  0
   11.9099   -7.7403    0.0000 C   0  0  0  0  0  0  0  0  0  0  0  0
   12.7200   -7.8962    0.0000 C   0  0  0  0  0  0  0  0  0  0  0  0
   11.3698   -8.3639    0.0000 C   0  0  0  0  0  0  0  0  0  0  0  0
   11.9099   -5.5575    0.0000 N   0  0  0  0  0  0  0  0  0  0  0  0
   12.4499   -4.9339    0.0000 C   0  0  0  0  0  0  0  0  0  0  0  0
   12.1799   -4.1543    0.0000 S   0  0  0  0  0  0  0  0  0  0  0  0
   11.3698   -3.9984    0.0000 C   0  0  0  0  0  0  0  0  0  0  0  0
   11.0997   -3.2189    0.0000 C   0  0  1  0  0  0  0  0  0  0  0  0
   10.2896   -3.0630    0.0000 N   0  0  0  0  0  0  0  0  0  0  0  0
   10.0195   -2.2834    0.0000 C   0  0  0  0  0  0  0  0  0  0  0  0
   10.5596   -1.6598    0.0000 O   0  0  0  0  0  0  0  0  0  0  0  0
    9.2094   -2.1275    0.0000 C   0  0  0  0  0  0  0  0  0  0  0  0
    8.9394   -1.3480    0.0000 C   0  0  0  0  0  0  0  0  0  0  0  0
    8.1292   -1.1921    0.0000 C   0  0  2  0  0  0  0  0  0  0  0  0
    7.5891   -1.8157    0.0000 N   0  0  0  0  0  0  0  0  0  0  0  0
    7.8592   -0.4125    0.0000 C   0  0  0  0  0  0  0  0  0  0  0  0
    7.0490   -0.2566    0.0000 O   0  0  0  0  0  0  0  0  0  0  0  0
    8.3993    0.2111    0.0000 O   0  0  0  0  0  0  0  0  0  0  0  0
   11.6398   -2.5952    0.0000 C   0  0  0  0  0  0  0  0  0  0  0  0
   12.4499   -2.7512    0.0000 O   0  0  0  0  0  0  0  0  0  0  0  0
   11.3698   -1.8157    0.0000 N   0  0  0  0  0  0  0  0  0  0  0  0
   11.9099   -1.1921    0.0000 C   0  0  0  0  0  0  0  0  0  0  0  0
   11.6398   -0.4125    0.0000 C   0  0  0  0  0  0  0  0  0  0  0  0
   10.8297   -0.2566    0.0000 O   0  0  0  0  0  0  0  0  0  0  0  0
   12.1799    0.2111    0.0000 O   0  0  0  0  0  0  0  0  0  0  0  0
   13.2601   -5.0898    0.0000 N   0  0  0  0  0  0  0  0  0  0  0  0
  1  2  1  0  0  0  0
  2  3  1  0  0  0  0
  3  4  1  0  0  0  0
  4  5  2  0  0  0  0
  5  6  1  0  0  0  0
  6  7  1  0  0  0  0
  7  8  1  0  0  0  0
  8  9  1  0  0  0  0
  8 10  1  0  0  0  0
  6 11  2  0  0  0  0
 11 12  1  0  0  0  0
 12 13  1  0  0  0  0
 13 14  1  0  0  0  0
 14 15  1  0  0  0  0
 15 16  1  1  0  0  0
 16 17  1  0  0  0  0
 17 18  2  0  0  0  0
 17 19  1  0  0  0  0
 19 20  1  0  0  0  0
 20 21  1  0  0  0  0
 21 22  1  6  0  0  0
 21 23  1  0  0  0  0
 23 24  1  0  0  0  0
 23 25  2  0  0  0  0
 15 26  1  0  0  0  0
 26 27  2  0  0  0  0
 26 28  1  0  0  0  0
 28 29  1  0  0  0  0
 29 30  1  0  0  0  0
 30 31  1  0  0  0  0
 30 32  2  0  0  0  0
 12 33  2  0  0  0  0
  4 33  1  0  0  0  0
M  END
> <DRUGBANK_ID>
DB02146

> <DRUG_GROUPS>
experimental

> <GENERIC_NAME>
Atrazine Glutathione Conjugate

> <CHEMICAL_FORMULA>
C18H30N8O6S

> <MOLECULAR_WEIGHT>
486.546

> <EXACT_MASS>
486.200901422

> <IUPAC_NAME>
(2S)-2-amino-4-{[(1S)-1-[(carboxymethyl)carbamoyl]-2-{[4-(ethylamino)-6-[(propan-2-yl)amino]-1,3,5-triazin-2-yl]sulfanyl}ethyl]carbamoyl}butanoic acid

> <IUPAC_TRADITIONAL_NAME>
(2S)-2-amino-4-{[(1S)-1-(carboxymethylcarbamoyl)-2-{[4-(ethylamino)-6-(isopropylamino)-1,3,5-triazin-2-yl]sulfanyl}ethyl]carbamoyl}butanoic acid

> <INCHI_IDENTIFIER>
InChI=1S/C18H30N8O6S/c1-4-20-16-24-17(22-9(2)3)26-18(25-16)33-8-11(14(30)21-7-13(28)29)23-12(27)6-5-10(19)15(31)32/h9-11H,4-8,19H2,1-3H3,(H,21,30)(H,23,27)(H,28,29)(H,31,32)(H2,20,22,24,25,26)/t10-,11+/m0/s1

> <INCHI_KEY>
InChIKey=WDLCRTLULMGVMR-WDEREUQCSA-N

> <SMILES>
CCNC1=NC(NC(C)C)=NC(SC[C@@H](NC(=O)CC[C@H](N)C(O)=O)C(=O)NCC(O)=O)=N1

> <JCHEM_ACCEPTOR_COUNT>
12

> <JCHEM_DONOR_COUNT>
7

> <JCHEM_ACIDIC_PKA>
-7.9

> <JCHEM_BASIC_PKA>
9.31

> <JCHEM_PHYSIOLOGICAL_CHARGE>
-1

> <ALOGPS_LOGP>
-0.5

> <JCHEM_LOGP>
-6

> <ALOGPS_LOGS>
-3.4

> <JCHEM_POLARIZABILITY>
48.94

> <JCHEM_POLAR_SURFACE_AREA>
221.55

> <JCHEM_REFRACTIVITY>
124.3

> <JCHEM_ROTATABLE_BOND_COUNT>
15

> <ALOGPS_SOLUBILITY>
1.89e-01 g/l __ 

$$$$
