
  Mrv0541 02231216162D          

 22 22  0  0  0  0            999 V2000
   -5.0013   -5.3625    0.0000 N   0  0  0  0  0  0  0  0  0  0  0  0
   -4.2868   -5.7750    0.0000 C   0  0  0  0  0  0  0  0  0  0  0  0
   -3.5724   -5.3625    0.0000 C   0  0  0  0  0  0  0  0  0  0  0  0
   -2.8579   -5.7750    0.0000 O   0  0  0  0  0  0  0  0  0  0  0  0
   -2.1434   -5.3625    0.0000 C   0  0  0  0  0  0  0  0  0  0  0  0
   -1.4289   -5.7750    0.0000 C   0  0  0  0  0  0  0  0  0  0  0  0
   -0.7145   -5.3625    0.0000 O   0  0  0  0  0  0  0  0  0  0  0  0
    0.0000   -5.7750    0.0000 C   0  0  0  0  0  0  0  0  0  0  0  0
    0.7145   -5.3625    0.0000 C   0  0  0  0  0  0  0  0  0  0  0  0
    1.4289   -5.7750    0.0000 N   0  0  0  0  0  0  0  0  0  0  0  0
    2.1434   -5.3625    0.0000 C   0  0  0  0  0  0  0  0  0  0  0  0
    2.1434   -4.5375    0.0000 O   0  0  0  0  0  0  0  0  0  0  0  0
    2.8579   -5.7750    0.0000 C   0  0  0  0  0  0  0  0  0  0  0  0
    3.5724   -5.3625    0.0000 C   0  0  0  0  0  0  0  0  0  0  0  0
    4.2868   -5.7750    0.0000 C   0  0  0  0  0  0  0  0  0  0  0  0
    4.2868   -6.6000    0.0000 C   0  0  0  0  0  0  0  0  0  0  0  0
    3.5724   -7.0125    0.0000 C   0  0  0  0  0  0  0  0  0  0  0  0
    2.8579   -6.6000    0.0000 C   0  0  0  0  0  0  0  0  0  0  0  0
    5.0013   -7.0125    0.0000 S   0  0  0  0  0  0  0  0  0  0  0  0
    5.7158   -7.4250    0.0000 N   0  0  0  0  0  0  0  0  0  0  0  0
    4.5888   -7.7270    0.0000 O   0  0  0  0  0  0  0  0  0  0  0  0
    5.4138   -6.2980    0.0000 O   0  0  0  0  0  0  0  0  0  0  0  0
  1  2  1  0  0  0  0
  2  3  1  0  0  0  0
  3  4  1  0  0  0  0
  4  5  1  0  0  0  0
  5  6  1  0  0  0  0
  6  7  1  0  0  0  0
  7  8  1  0  0  0  0
  8  9  1  0  0  0  0
  9 10  1  0  0  0  0
 10 11  1  0  0  0  0
 11 12  2  0  0  0  0
 11 13  1  0  0  0  0
 13 14  2  0  0  0  0
 14 15  1  0  0  0  0
 15 16  2  0  0  0  0
 16 17  1  0  0  0  0
 17 18  2  0  0  0  0
 13 18  1  0  0  0  0
 16 19  1  0  0  0  0
 19 20  1  0  0  0  0
 19 21  2  0  0  0  0
 19 22  2  0  0  0  0
M  END
> <DRUGBANK_ID>
DB02535

> <DRUG_GROUPS>
experimental

> <GENERIC_NAME>
Aminodi(Ethyloxy)Ethylaminocarbonylbenzenesulfonamide

> <CHEMICAL_FORMULA>
C13H21N3O5S

> <MOLECULAR_WEIGHT>
331.388

> <EXACT_MASS>
331.120191487

> <IUPAC_NAME>
N-{2-[2-(2-aminoethoxy)ethoxy]ethyl}-4-sulfamoylbenzamide

> <IUPAC_TRADITIONAL_NAME>
N-{2-[2-(2-aminoethoxy)ethoxy]ethyl}-4-sulfamoylbenzamide

> <INCHI_IDENTIFIER>
InChI=1S/C13H21N3O5S/c14-5-7-20-9-10-21-8-6-16-13(17)11-1-3-12(4-2-11)22(15,18)19/h1-4H,5-10,14H2,(H,16,17)(H2,15,18,19)

> <INCHI_KEY>
InChIKey=QGGYVKRXFQLYQD-UHFFFAOYSA-N

> <SMILES>
NCCOCCOCCNC(=O)C1=CC=C(C=C1)S(N)(=O)=O

> <JCHEM_ACCEPTOR_COUNT>
6

> <JCHEM_DONOR_COUNT>
3

> <JCHEM_ACIDIC_PKA>
10.07

> <JCHEM_BASIC_PKA>
9.33

> <JCHEM_PHYSIOLOGICAL_CHARGE>
1

> <ALOGPS_LOGP>
-0.51

> <JCHEM_LOGP>
-1.6

> <ALOGPS_LOGS>
-2.5

> <JCHEM_POLARIZABILITY>
35.17

> <JCHEM_POLAR_SURFACE_AREA>
133.74

> <JCHEM_REFRACTIVITY>
82.23

> <JCHEM_ROTATABLE_BOND_COUNT>
10

> <ALOGPS_SOLUBILITY>
1.15e+00 g/l __ 

$$$$
