
  Mrv0541 02231216182D          

 45 48  0  0  1  0            999 V2000
   -1.6216  -11.0948    0.0000 C    0  0  0  0  0  0  0  0  0  0  0  0
   -2.4317  -10.9389    0.0000 C    0  0  0  0  0  0  0  0  0  0  0  0
   -2.9718  -11.5625    0.0000 C    0  0  0  0  0  0  0  0  0  0  0  0
   -2.7018  -10.1593    0.0000 C    0  0  0  0  0  0  0  0  0  0  0  0
   -2.1617   -9.5357    0.0000 C    0  0  1  0  0  0  0  0  0  0  0  0
   -2.4317   -8.7561    0.0000 N    0  0  0  0  0  0  0  0  0  0  0  0
   -3.2419   -8.6002    0.0000 C    0  0  0  0  0  0  0  0  0  0  0  0
   -3.7819   -9.2239    0.0000 N    0  0  0  0  0  0  0  0  0  0  0  0
   -3.5119   -7.8207    0.0000 N    0  0  0  0  0  0  0  0  0  0  0  0
   -1.3515   -9.6916    0.0000 C    0  0  0  0  0  0  0  0  0  0  0  0
   -1.0815  -10.4712    0.0000 O    0  0  0  0  0  0  0  0  0  0  0  0
   -0.8115   -9.0680    0.0000 N    0  0  0  0  0  0  0  0  0  0  0  0
   -0.0013   -9.2239    0.0000 C    0  0  0  0  0  0  0  0  0  0  0  0
    0.5388   -8.6002    0.0000 C    0  0  0  0  0  0  0  0  0  0  0  0
    0.2687   -7.8207    0.0000 O    0  0  0  0  0  0  0  0  0  0  0  0
    1.3489   -8.7561    0.0000 N    0  0  0  0  0  0  0  0  0  0  0  0
    1.8890   -8.1325    0.0000 C    0  0  0  0  0  0  0  0  0  0  0  0
    2.6991   -8.2884    0.0000 C    0  0  0  0  0  0  0  0  0  0  0  0
    2.9692   -9.0680    0.0000 C    0  0  0  0  0  0  0  0  0  0  0  0
    2.4291   -9.6916    0.0000 C    0  0  0  0  0  0  0  0  0  0  0  0
    1.6189   -9.5357    0.0000 C    0  0  0  0  0  0  0  0  0  0  0  0
    3.7793   -9.2239    0.0000 C    0  0  0  0  0  0  0  0  0  0  0  0
    4.3816   -8.6601    0.0000 C    0  0  0  0  0  0  0  0  0  0  0  0
    5.1039   -9.0587    0.0000 C    0  0  0  0  0  0  0  0  0  0  0  0
    4.9480   -9.8689    0.0000 N    0  0  0  0  0  0  0  0  0  0  0  0
    4.1294   -9.9709    0.0000 N    0  0  0  0  0  0  0  0  0  0  0  0
    3.7307  -10.6932    0.0000 C    0  0  0  0  0  0  0  0  0  0  0  0
    5.8510   -8.7087    0.0000 C    0  0  0  0  0  0  0  0  0  0  0  0
    5.9214   -7.8867    0.0000 C    0  0  0  0  0  0  0  0  0  0  0  0
    6.6684   -7.5366    0.0000 C    0  0  0  0  0  0  0  0  0  0  0  0
    7.3451   -8.0086    0.0000 C    0  0  0  0  0  0  0  0  0  0  0  0
    8.0921   -7.6585    0.0000 O    0  0  0  0  0  0  0  0  0  0  0  0
    8.7688   -8.1305    0.0000 C    0  0  0  0  0  0  0  0  0  0  0  0
    9.5159   -7.7804    0.0000 C    0  0  0  0  0  0  0  0  0  0  0  0
    9.6718   -6.9703    0.0000 C    0  0  0  0  0  0  0  0  0  0  0  0
   10.4905   -6.8682    0.0000 C    0  0  0  0  0  0  0  0  0  0  0  0
   10.8405   -7.6153    0.0000 C    0  0  0  0  0  0  0  0  0  0  0  0
   10.2382   -8.1790    0.0000 O    0  0  0  0  0  0  0  0  0  0  0  0
   11.6506   -7.7712    0.0000 C    0  0  0  0  0  0  0  0  0  0  0  0
   12.1907   -7.1475    0.0000 O    0  0  0  0  0  0  0  0  0  0  0  0
   11.9207   -8.5507    0.0000 O    0  0  0  0  0  0  0  0  0  0  0  0
    7.2747   -8.8306    0.0000 C    0  0  0  0  0  0  0  0  0  0  0  0
    7.9514   -9.3025    0.0000 Cl   0  0  0  0  0  0  0  0  0  0  0  0
    6.5277   -9.1806    0.0000 C    0  0  0  0  0  0  0  0  0  0  0  0
    6.4573  -10.0026    0.0000 Cl   0  0  0  0  0  0  0  0  0  0  0  0
  1  2  1  0  0  0  0
  2  3  1  0  0  0  0
  2  4  1  0  0  0  0
  4  5  1  0  0  0  0
  5  6  1  1  0  0  0
  6  7  1  0  0  0  0
  7  8  1  0  0  0  0
  7  9  2  0  0  0  0
  5 10  1  0  0  0  0
 10 11  2  0  0  0  0
 10 12  1  0  0  0  0
 12 13  1  0  0  0  0
 13 14  1  0  0  0  0
 14 15  2  0  0  0  0
 14 16  1  0  0  0  0
 16 17  1  0  0  0  0
 17 18  1  0  0  0  0
 18 19  1  0  0  0  0
 19 20  1  0  0  0  0
 20 21  1  0  0  0  0
 16 21  1  0  0  0  0
 19 22  1  0  0  0  0
 22 23  2  0  0  0  0
 23 24  1  0  0  0  0
 24 25  2  0  0  0  0
 25 26  1  0  0  0  0
 22 26  1  0  0  0  0
 26 27  1  0  0  0  0
 24 28  1  0  0  0  0
 28 29  2  0  0  0  0
 29 30  1  0  0  0  0
 30 31  2  0  0  0  0
 31 32  1  0  0  0  0
 32 33  1  0  0  0  0
 33 34  1  0  0  0  0
 34 35  2  0  0  0  0
 35 36  1  0  0  0  0
 36 37  2  0  0  0  0
 37 38  1  0  0  0  0
 34 38  1  0  0  0  0
 37 39  1  0  0  0  0
 39 40  1  0  0  0  0
 39 41  2  0  0  0  0
 31 42  1  0  0  0  0
 42 43  1  0  0  0  0
 42 44  2  0  0  0  0
 28 44  1  0  0  0  0
 44 45  1  0  0  0  0
M  END
> <DRUGBANK_ID>
DB02581

> <DRUG_GROUPS>
experimental

> <GENERIC_NAME>
5-[2,3-Dichloro-4-(5-{1-[2-(2-Guanidino-4-Methyl-Pentanoylamino)-Acetyl]-Piperidin-4-Yl}-1-Methyl-1h-Pyrazol-3-Yl)-Phenoxymethyl]-Furan-2-Carboxylic Acid

> <CHEMICAL_FORMULA>
C30H37Cl2N7O6

> <MOLECULAR_WEIGHT>
662.564

> <EXACT_MASS>
661.218237365

> <IUPAC_NAME>
5-{4-[5-(1-{2-[(2R)-2-carbamimidamido-4-methylpentanamido]acetyl}piperidin-4-yl)-1-methyl-1H-pyrazol-3-yl]-2,3-dichlorophenoxymethyl}furan-2-carboxylic acid

> <IUPAC_TRADITIONAL_NAME>
5-{4-[5-(1-{2-[(2R)-2-carbamimidamido-4-methylpentanamido]acetyl}piperidin-4-yl)-1-methylpyrazol-3-yl]-2,3-dichlorophenoxymethyl}furan-2-carboxylic acid

> <INCHI_IDENTIFIER>
InChI=1S/C30H37Cl2N7O6/c1-16(2)12-21(36-30(33)34)28(41)35-14-25(40)39-10-8-17(9-11-39)22-13-20(37-38(22)3)19-5-7-23(27(32)26(19)31)44-15-18-4-6-24(45-18)29(42)43/h4-7,13,16-17,21H,8-12,14-15H2,1-3H3,(H,35,41)(H,42,43)(H4,33,34,36)/t21-/m1/s1

> <INCHI_KEY>
InChIKey=VNZHOIDQBPFEJU-OAQYLSRUSA-N

> <SMILES>
CC(C)C[C@@H](NC(N)=N)C(=O)NCC(=O)N1CCC(CC1)C1=CC(=NN1C)C1=CC=C(OCC2=CC=C(O2)C(O)=O)C(Cl)=C1Cl

> <JCHEM_ACCEPTOR_COUNT>
9

> <JCHEM_DONOR_COUNT>
5

> <JCHEM_ACIDIC_PKA>
3.13

> <JCHEM_BASIC_PKA>
11.36

> <JCHEM_PHYSIOLOGICAL_CHARGE>
0

> <ALOGPS_LOGP>
3.38

> <JCHEM_LOGP>
1.22

> <ALOGPS_LOGS>
-4

> <JCHEM_POLARIZABILITY>
68.46

> <JCHEM_POLAR_SURFACE_AREA>
188.8

> <JCHEM_REFRACTIVITY>
189.92

> <JCHEM_ROTATABLE_BOND_COUNT>
12

> <ALOGPS_SOLUBILITY>
7.18e-02 g/l __ 

$$$$
