
  Mrv0541 02231216212D          

  7  6  0  0  0  0            999 V2000
    1.2375    2.1434    0.0000 N   0  0  0  0  0  0  0  0  0  0  0  0
    0.8250    1.4289    0.0000 C   0  0  0  0  0  0  0  0  0  0  0  0
    0.0000    1.4289    0.0000 O   0  0  0  0  0  0  0  0  0  0  0  0
    1.2375    0.7145    0.0000 C   0  0  0  0  0  0  0  0  0  0  0  0
    0.8250    0.0000    0.0000 C   0  0  0  0  0  0  0  0  0  0  0  0
    1.2375   -0.7145    0.0000 O   0  0  0  0  0  0  0  0  0  0  0  0
    0.0000    0.0000    0.0000 O   0  0  0  0  0  0  0  0  0  0  0  0
  1  2  1  0  0  0  0
  2  3  2  0  0  0  0
  2  4  1  0  0  0  0
  4  5  1  0  0  0  0
  5  6  1  0  0  0  0
  5  7  2  0  0  0  0
M  END
> <DRUGBANK_ID>
DB02649

> <DRUG_GROUPS>
experimental

> <GENERIC_NAME>
3-Amino-3-Oxopropanoic Acid

> <CHEMICAL_FORMULA>
C3H5NO3

> <MOLECULAR_WEIGHT>
103.0767

> <EXACT_MASS>
103.026943031

> <IUPAC_NAME>
2-carbamoylacetic acid

> <IUPAC_TRADITIONAL_NAME>
malonamic acid

> <INCHI_IDENTIFIER>
InChI=1S/C3H5NO3/c4-2(5)1-3(6)7/h1H2,(H2,4,5)(H,6,7)

> <INCHI_KEY>
InChIKey=CGJMROBVSBIBKP-UHFFFAOYSA-N

> <SMILES>
NC(=O)CC(O)=O

> <JCHEM_ACCEPTOR_COUNT>
3

> <JCHEM_DONOR_COUNT>
2

> <JCHEM_ACIDIC_PKA>
3.66

> <JCHEM_BASIC_PKA>
-5.9

> <JCHEM_PHYSIOLOGICAL_CHARGE>
-1

> <ALOGPS_LOGP>
-1.6

> <JCHEM_LOGP>
-1.1

> <ALOGPS_LOGS>
0.35

> <JCHEM_POLARIZABILITY>
8.56

> <JCHEM_POLAR_SURFACE_AREA>
80.39

> <JCHEM_REFRACTIVITY>
20.81

> <JCHEM_ROTATABLE_BOND_COUNT>
2

> <ALOGPS_SOLUBILITY>
2.29e+02 g/l __ 

$$$$
