
  Mrv0541 02231216032D          

 23 24  0  0  1  0            999 V2000
   -5.0013   -0.4125    0.0000 O   0  0  0  0  0  0  0  0  0  0  0  0
   -4.2868    0.0000    0.0000 C   0  0  0  0  0  0  0  0  0  0  0  0
   -3.5724   -0.4125    0.0000 C   0  0  1  0  0  0  0  0  0  0  0  0
   -3.5724   -1.2375    0.0000 O   0  0  0  0  0  0  0  0  0  0  0  0
   -2.8579    0.0000    0.0000 C   0  0  2  0  0  0  0  0  0  0  0  0
   -2.8579    0.8250    0.0000 O   0  0  0  0  0  0  0  0  0  0  0  0
   -2.1434   -0.4125    0.0000 C   0  0  1  0  0  0  0  0  0  0  0  0
   -2.1434   -1.2375    0.0000 O   0  0  0  0  0  0  0  0  0  0  0  0
   -1.4289    0.0000    0.0000 C   0  0  0  0  0  0  0  0  0  0  0  0
   -0.7145   -0.4125    0.0000 N   0  0  0  0  0  0  0  0  0  0  0  0
   -0.7145   -1.2375    0.0000 C   0  0  0  0  0  0  0  0  0  0  0  0
   -1.4289   -1.6500    0.0000 O   0  0  0  0  0  0  0  0  0  0  0  0
    0.0000   -1.6500    0.0000 C   0  0  0  0  0  0  0  0  0  0  0  0
    0.0000   -2.4750    0.0000 O   0  0  0  0  0  0  0  0  0  0  0  0
    0.7145   -1.2375    0.0000 N   0  0  0  0  0  0  0  0  0  0  0  0
    0.7145   -0.4125    0.0000 C   0  0  0  0  0  0  0  0  0  0  0  0
    0.0000    0.0000    0.0000 C   0  0  0  0  0  0  0  0  0  0  0  0
    0.0000    0.8250    0.0000 N   0  0  0  0  0  0  0  0  0  0  0  0
    0.7145    1.2375    0.0000 C   0  0  0  0  0  0  0  0  0  0  0  0
    0.7145    2.0625    0.0000 O   0  0  0  0  0  0  0  0  0  0  0  0
    1.4289    0.8250    0.0000 N   0  0  0  0  0  0  0  0  0  0  0  0
    1.4289    0.0000    0.0000 C   0  0  0  0  0  0  0  0  0  0  0  0
    2.1434   -0.4125    0.0000 O   0  0  0  0  0  0  0  0  0  0  0  0
  1  2  1  0  0  0  0
  2  3  1  0  0  0  0
  3  4  1  6  0  0  0
  3  5  1  0  0  0  0
  5  6  1  6  0  0  0
  5  7  1  0  0  0  0
  7  8  1  6  0  0  0
  7  9  1  0  0  0  0
  9 10  1  0  0  0  0
 10 11  1  0  0  0  0
 11 12  2  0  0  0  0
 11 13  1  0  0  0  0
 13 14  2  0  0  0  0
 13 15  1  0  0  0  0
 15 16  1  0  0  0  0
 16 17  2  0  0  0  0
 10 17  1  0  0  0  0
 17 18  1  0  0  0  0
 18 19  1  0  0  0  0
 19 20  2  0  0  0  0
 19 21  1  0  0  0  0
 21 22  1  0  0  0  0
 16 22  1  0  0  0  0
 22 23  2  0  0  0  0
M  END
> <DRUGBANK_ID>
DB02214

> <DRUG_GROUPS>
experimental

> <GENERIC_NAME>
6,7-Dioxo-5h-8-Ribitylaminolumazine

> <CHEMICAL_FORMULA>
C11H14N4O8

> <MOLECULAR_WEIGHT>
330.2509

> <EXACT_MASS>
330.081163444

> <IUPAC_NAME>
8-[(2S,3R,4R)-2,3,4,5-tetrahydroxypentyl]-1,2,3,4,5,6,7,8-octahydropteridine-2,4,6,7-tetrone

> <IUPAC_TRADITIONAL_NAME>
8-[(2S,3R,4R)-2,3,4,5-tetrahydroxypentyl]-3,5-dihydro-1H-pteridine-2,4,6,7-tetrone

> <INCHI_IDENTIFIER>
InChI=1S/C11H14N4O8/c16-2-4(18)6(19)3(17)1-15-7-5(12-9(21)10(15)22)8(20)14-11(23)13-7/h3-4,6,16-19H,1-2H2,(H,12,21)(H2,13,14,20,23)/t3-,4+,6+/m0/s1

> <INCHI_KEY>
InChIKey=MIBROOURCUHKMD-MRKVFDINSA-N

> <SMILES>
OC[C@@H](O)[C@H](O)[C@@H](O)CN1C(=O)C(=O)NC2=C1NC(=O)NC2=O

> <JCHEM_ACCEPTOR_COUNT>
8

> <JCHEM_DONOR_COUNT>
7

> <JCHEM_ACIDIC_PKA>
7.06

> <JCHEM_BASIC_PKA>
-3

> <JCHEM_PHYSIOLOGICAL_CHARGE>
0

> <ALOGPS_LOGP>
-2

> <JCHEM_LOGP>
-4.8

> <ALOGPS_LOGS>
-1.3

> <JCHEM_POLARIZABILITY>
28.97

> <JCHEM_POLAR_SURFACE_AREA>
188.53

> <JCHEM_REFRACTIVITY>
79.65

> <JCHEM_ROTATABLE_BOND_COUNT>
5

> <ALOGPS_SOLUBILITY>
1.64e+01 g/l __ 

$$$$
