
  Mrv0541 02231216152D          

 24 27  0  0  0  0            999 V2000
   -0.7546   -4.3383    0.0000 O   0  0  0  0  0  0  0  0  0  0  0  0
   -0.9262   -3.5314    0.0000 S   0  0  0  0  0  0  0  0  0  0  0  0
   -0.1192   -3.3598    0.0000 O   0  0  0  0  0  0  0  0  0  0  0  0
   -1.7331   -3.7029    0.0000 O   0  0  0  0  0  0  0  0  0  0  0  0
   -1.0977   -2.7244    0.0000 C   0  0  0  0  0  0  0  0  0  0  0  0
   -1.8823   -2.4694    0.0000 C   0  0  0  0  0  0  0  0  0  0  0  0
   -2.0538   -1.6625    0.0000 C   0  0  0  0  0  0  0  0  0  0  0  0
   -1.4407   -1.1104    0.0000 C   0  0  0  0  0  0  0  0  0  0  0  0
   -1.4407   -0.2854    0.0000 N   0  0  0  0  0  0  0  0  0  0  0  0
   -0.6561   -0.0305    0.0000 C   0  0  0  0  0  0  0  0  0  0  0  0
   -0.4012    0.7541    0.0000 O   0  0  0  0  0  0  0  0  0  0  0  0
   -0.1712   -0.6979    0.0000 C   0  0  0  0  0  0  0  0  0  0  0  0
   -0.6561   -1.3654    0.0000 C   0  0  0  0  0  0  0  0  0  0  0  0
   -0.4846   -2.1724    0.0000 C   0  0  0  0  0  0  0  0  0  0  0  0
    0.6538   -0.6979    0.0000 C   0  0  0  0  0  0  0  0  0  0  0  0
    1.1387   -0.0305    0.0000 N   0  0  0  0  0  0  0  0  0  0  0  0
    1.9233   -0.2854    0.0000 C   0  0  0  0  0  0  0  0  0  0  0  0
    2.6378    0.1271    0.0000 C   0  0  0  0  0  0  0  0  0  0  0  0
    3.3523   -0.2854    0.0000 C   0  0  0  0  0  0  0  0  0  0  0  0
    3.3523   -1.1104    0.0000 C   0  0  0  0  0  0  0  0  0  0  0  0
    2.6378   -1.5229    0.0000 C   0  0  0  0  0  0  0  0  0  0  0  0
    1.9233   -1.1104    0.0000 C   0  0  0  0  0  0  0  0  0  0  0  0
    1.1387   -1.3654    0.0000 C   0  0  0  0  0  0  0  0  0  0  0  0
    0.8838   -2.1500    0.0000 O   0  0  0  0  0  0  0  0  0  0  0  0
  1  2  1  0  0  0  0
  2  3  2  0  0  0  0
  2  4  2  0  0  0  0
  2  5  1  0  0  0  0
  5  6  2  0  0  0  0
  6  7  1  0  0  0  0
  7  8  2  0  0  0  0
  8  9  1  0  0  0  0
  9 10  1  0  0  0  0
 10 11  2  0  0  0  0
 10 12  1  0  0  0  0
 12 13  1  0  0  0  0
  8 13  1  0  0  0  0
 13 14  2  0  0  0  0
  5 14  1  0  0  0  0
 12 15  2  0  0  0  0
 15 16  1  0  0  0  0
 16 17  1  0  0  0  0
 17 18  2  0  0  0  0
 18 19  1  0  0  0  0
 19 20  2  0  0  0  0
 20 21  1  0  0  0  0
 21 22  2  0  0  0  0
 17 22  1  0  0  0  0
 22 23  1  0  0  0  0
 15 23  1  0  0  0  0
 23 24  2  0  0  0  0
M  END
> <DRUGBANK_ID>
DB02519

> <DRUG_GROUPS>
experimental

> <GENERIC_NAME>
Indirubin-5-Sulphonate

> <CHEMICAL_FORMULA>
C16H10N2O5S

> <MOLECULAR_WEIGHT>
342.326

> <EXACT_MASS>
342.03104213

> <IUPAC_NAME>
2-oxo-3-(3-oxo-2,3-dihydro-1H-indol-2-ylidene)-2,3-dihydro-1H-indole-5-sulfonic acid

> <IUPAC_TRADITIONAL_NAME>
indirubin-5-sulphonate

> <INCHI_IDENTIFIER>
InChI=1S/C16H10N2O5S/c19-15-9-3-1-2-4-11(9)17-14(15)13-10-7-8(24(21,22)23)5-6-12(10)18-16(13)20/h1-7,17H,(H,18,20)(H,21,22,23)/b14-13-

> <INCHI_KEY>
InChIKey=IHBOEHLUIBMBMY-YPKPFQOOSA-N

> <SMILES>
OS(=O)(=O)C1=CC=C2NC(=O)\C(=C3/NC4=CC=CC=C4C3=O)C2=C1

> <JCHEM_ACCEPTOR_COUNT>
6

> <JCHEM_DONOR_COUNT>
3

> <JCHEM_ACIDIC_PKA>
-2.1

> <JCHEM_BASIC_PKA>
-2.8

> <JCHEM_PHYSIOLOGICAL_CHARGE>
-1

> <ALOGPS_LOGP>
0.73

> <JCHEM_LOGP>
-0.41

> <ALOGPS_LOGS>
-3.7

> <JCHEM_POLARIZABILITY>
32.97

> <JCHEM_POLAR_SURFACE_AREA>
112.57

> <JCHEM_REFRACTIVITY>
89.62

> <JCHEM_ROTATABLE_BOND_COUNT>
1

> <ALOGPS_SOLUBILITY>
6.39e-02 g/l __ 

$$$$
