OBA
  Mrv0541 02231216202D          

 15 15  0  0  0  0            999 V2000
    0.7011    1.4502    0.0000 C   0  0  0  0  0  0  0  0  0  0  0  0
    0.7011    0.6252    0.0000 C   0  0  0  0  0  0  0  0  0  0  0  0
   -0.0134    0.2127    0.0000 C   0  0  0  0  0  0  0  0  0  0  0  0
   -0.7279    0.6252    0.0000 C   0  0  0  0  0  0  0  0  0  0  0  0
   -0.7279    1.4502    0.0000 C   0  0  0  0  0  0  0  0  0  0  0  0
   -0.0134    1.8627    0.0000 C   0  0  0  0  0  0  0  0  0  0  0  0
   -1.4423    0.2127    0.0000 C   0  0  0  0  0  0  0  0  0  0  0  0
   -2.1568    0.6252    0.0000 O   0  0  0  0  0  0  0  0  0  0  0  0
   -1.4423   -0.6123    0.0000 O   0  0  0  0  0  0  0  0  0  0  0  0
   -0.0134   -0.6123    0.0000 N   0  0  0  0  0  0  0  0  0  0  0  0
    0.7011   -1.0248    0.0000 C   0  0  0  0  0  0  0  0  0  0  0  0
    1.4155   -0.6123    0.0000 O   0  0  0  0  0  0  0  0  0  0  0  0
    0.7011   -1.8498    0.0000 C   0  0  0  0  0  0  0  0  0  0  0  0
    1.4155   -2.2623    0.0000 O   0  0  0  0  0  0  0  0  0  0  0  0
   -0.0134   -2.2623    0.0000 O   0  0  0  0  0  0  0  0  0  0  0  0
  1  2  2  0  0  0  0
  1  6  1  0  0  0  0
  2  3  1  0  0  0  0
  3  4  2  0  0  0  0
  3 10  1  0  0  0  0
  4  5  1  0  0  0  0
  4  7  1  0  0  0  0
  5  6  2  0  0  0  0
  7  8  2  0  0  0  0
  7  9  1  0  0  0  0
 10 11  1  0  0  0  0
 11 12  2  0  0  0  0
 11 13  1  0  0  0  0
 13 14  2  0  0  0  0
 13 15  1  0  0  0  0
M  END
> <DRUGBANK_ID>
DB02622

> <DRUG_GROUPS>
experimental

> <GENERIC_NAME>
2-(Oxalyl-Amino)-Benzoic Acid

> <CHEMICAL_FORMULA>
C9H7NO5

> <MOLECULAR_WEIGHT>
209.1556

> <EXACT_MASS>
209.032422339

> <IUPAC_NAME>
2-(carboxyformamido)benzoic acid

> <IUPAC_TRADITIONAL_NAME>
2-(carboxyformamido)benzoic acid

> <INCHI_IDENTIFIER>
InChI=1S/C9H7NO5/c11-7(9(14)15)10-6-4-2-1-3-5(6)8(12)13/h1-4H,(H,10,11)(H,12,13)(H,14,15)

> <INCHI_KEY>
InChIKey=QBYNNSFEMMNINN-UHFFFAOYSA-N

> <SMILES>
OC(=O)C(=O)NC1=C(C=CC=C1)C(O)=O

> <JCHEM_ACCEPTOR_COUNT>
5

> <JCHEM_DONOR_COUNT>
3

> <JCHEM_ACIDIC_PKA>
2.11

> <JCHEM_BASIC_PKA>
-6.9

> <JCHEM_PHYSIOLOGICAL_CHARGE>
-2

> <ALOGPS_LOGP>
0.36

> <JCHEM_LOGP>
1.48

> <ALOGPS_LOGS>
-2.4

> <JCHEM_POLARIZABILITY>
18.53

> <JCHEM_POLAR_SURFACE_AREA>
103.7

> <JCHEM_REFRACTIVITY>
49.97

> <JCHEM_ROTATABLE_BOND_COUNT>
3

> <ALOGPS_SOLUBILITY>
9.22e-01 g/l __ 

$$$$
