
  Mrv0541 02231216162D          

 21 21  0  0  1  0            999 V2000
    4.2868    0.8250    0.0000 C   0  0  0  0  0  0  0  0  0  0  0  0
    3.5724    1.2375    0.0000 C   0  0  0  0  0  0  0  0  0  0  0  0
    2.8579    0.8250    0.0000 N   0  0  0  0  0  0  0  0  0  0  0  0
    2.8579    0.0000    0.0000 C   0  0  0  0  0  0  0  0  0  0  0  0
    2.1434   -0.4125    0.0000 C   0  0  0  0  0  0  0  0  0  0  0  0
    2.1434    1.2375    0.0000 C   0  0  0  0  0  0  0  0  0  0  0  0
    2.1434    2.0625    0.0000 O   0  0  0  0  0  0  0  0  0  0  0  0
    1.4289    0.8250    0.0000 C   0  0  1  0  0  0  0  0  0  0  0  0
    1.4289    0.0000    0.0000 O   0  0  0  0  0  0  0  0  0  0  0  0
    0.7145   -0.4125    0.0000 C   0  0  2  0  0  0  0  0  0  0  0  0
    0.0000    0.0000    0.0000 C   0  0  0  0  0  0  0  0  0  0  0  0
    0.0000    0.8250    0.0000 C   0  0  1  0  0  0  0  0  0  0  0  0
   -0.7145    1.2375    0.0000 N   0  0  0  0  0  0  0  0  0  0  0  0
    0.7145    1.2375    0.0000 C   0  0  2  0  0  0  0  0  0  0  0  0
    0.7145    2.0625    0.0000 N   0  0  0  0  0  0  0  0  0  0  0  0
    0.0000    2.4750    0.0000 C   0  0  0  0  0  0  0  0  0  0  0  0
   -0.7145    2.0625    0.0000 C   0  0  0  0  0  0  0  0  0  0  0  0
    0.0000    3.3000    0.0000 O   0  0  0  0  0  0  0  0  0  0  0  0
    0.7145   -1.2375    0.0000 C   0  0  0  0  0  0  0  0  0  0  0  0
    0.0000   -1.6500    0.0000 O   0  0  0  0  0  0  0  0  0  0  0  0
    1.4289   -1.6500    0.0000 O   0  0  0  0  0  0  0  0  0  0  0  0
  1  2  1  0  0  0  0
  2  3  1  0  0  0  0
  3  4  1  0  0  0  0
  4  5  1  0  0  0  0
  3  6  1  0  0  0  0
  6  7  2  0  0  0  0
  8  6  1  1  0  0  0
  8  9  1  0  0  0  0
  9 10  1  0  0  0  0
 10 11  1  0  0  0  0
 11 12  1  0  0  0  0
 12 13  1  1  0  0  0
 12 14  1  0  0  0  0
  8 14  1  0  0  0  0
 14 15  1  6  0  0  0
 15 16  1  0  0  0  0
 16 17  1  0  0  0  0
 16 18  2  0  0  0  0
 10 19  1  1  0  0  0
 19 20  1  0  0  0  0
 19 21  2  0  0  0  0
M  END
> <DRUGBANK_ID>
DB02529

> <DRUG_GROUPS>
experimental

> <GENERIC_NAME>
5-N-Acetyl-4-Amino-6-Diethylcarboxamide-4,5-Dihydro-2h-Pyran-2-Carboxylic Acid

> <CHEMICAL_FORMULA>
C13H23N3O5

> <MOLECULAR_WEIGHT>
301.3388

> <EXACT_MASS>
301.163770861

> <IUPAC_NAME>
(2R,4R,5S,6S)-4-amino-6-(diethylcarbamoyl)-5-acetamidooxane-2-carboxylic acid

> <IUPAC_TRADITIONAL_NAME>
(2R,4R,5S,6S)-4-amino-6-(diethylcarbamoyl)-5-acetamidooxane-2-carboxylic acid

> <INCHI_IDENTIFIER>
InChI=1S/C13H23N3O5/c1-4-16(5-2)12(18)11-10(15-7(3)17)8(14)6-9(21-11)13(19)20/h8-11H,4-6,14H2,1-3H3,(H,15,17)(H,19,20)/t8-,9-,10+,11+/m1/s1

> <INCHI_KEY>
InChIKey=BULFTXGJKXVMER-ZNSHCXBVSA-N

> <SMILES>
CCN(CC)C(=O)[C@H]1O[C@H](C[C@@H](N)[C@@H]1NC(C)=O)C(O)=O

> <JCHEM_ACCEPTOR_COUNT>
6

> <JCHEM_DONOR_COUNT>
3

> <JCHEM_ACIDIC_PKA>
3.63

> <JCHEM_BASIC_PKA>
9.1

> <JCHEM_PHYSIOLOGICAL_CHARGE>
0

> <ALOGPS_LOGP>
-0.93

> <JCHEM_LOGP>
-4.2

> <ALOGPS_LOGS>
-0.86

> <JCHEM_POLARIZABILITY>
30.69

> <JCHEM_POLAR_SURFACE_AREA>
121.96

> <JCHEM_REFRACTIVITY>
73.37

> <JCHEM_ROTATABLE_BOND_COUNT>
5

> <ALOGPS_SOLUBILITY>
4.13e+01 g/l __ 

$$$$
