
  Mrv0541 02231216012D          

  5  4  0  0  0  0            999 V2000
    2.0625   -0.7145    0.0000 C    0  0  0  0  0  0  0  0  0  0  0  0
    1.2375   -0.7145    0.0000 C    0  0  0  0  0  0  0  0  0  0  0  0
    0.8250   -1.4289    0.0000 O    0  0  0  0  0  0  0  0  0  0  0  0
    0.8250    0.0000    0.0000 O    0  0  0  0  0  0  0  0  0  0  0  0
    0.0000    0.0000    0.0000 Hg   0  3  0  0  0  0  0  0  0  0  0  0
  1  2  1  0  0  0  0
  2  3  2  0  0  0  0
  2  4  1  0  0  0  0
  4  5  1  0  0  0  0
M  END
> <DRUGBANK_ID>
DB02176

> <DRUG_GROUPS>
experimental

> <GENERIC_NAME>
Mercury Acetate Ion

> <CHEMICAL_FORMULA>
C2H3HgO2

> <MOLECULAR_WEIGHT>
259.63

> <EXACT_MASS>
260.983929944

> <IUPAC_NAME>
(acetyloxy)mercuryylium

> <IUPAC_TRADITIONAL_NAME>
mercury acetate ion

> <INCHI_IDENTIFIER>
InChI=1S/C2H4O2.Hg/c1-2(3)4;/h1H3,(H,3,4);/q;+2/p-1

> <INCHI_KEY>
InChIKey=QWSOAYZXYZDDPB-UHFFFAOYSA-M

> <SMILES>
CC(=O)O[Hg+]

> <JCHEM_ACCEPTOR_COUNT>
1

> <JCHEM_DONOR_COUNT>
0

> <JCHEM_BASIC_PKA>
-7.2

> <JCHEM_PHYSIOLOGICAL_CHARGE>
1

> <ALOGPS_LOGP>
0.16

> <JCHEM_LOGP>
-0.76

> <ALOGPS_LOGS>
-0.56

> <JCHEM_POLARIZABILITY>
6.86

> <JCHEM_POLAR_SURFACE_AREA>
26.3

> <JCHEM_REFRACTIVITY>
11.72

> <JCHEM_ROTATABLE_BOND_COUNT>
1

> <ALOGPS_SOLUBILITY>
8.15e+01 g/l __ 

$$$$
