
  Mrv0541 02231216232D          

 48 53  0  0  1  0            999 V2000
    5.1909   -5.6567    0.0000 O   0  0  0  0  0  0  0  0  0  0  0  0
    4.4309   -5.3358    0.0000 C   0  0  2  0  0  0  0  0  0  0  0  0
    3.7246   -5.7620    0.0000 C   0  0  0  0  0  0  0  0  0  0  0  0
    3.1009   -5.2219    0.0000 C   0  0  0  0  0  0  0  0  0  0  0  0
    2.2822   -5.3240    0.0000 C   0  0  0  0  0  0  0  0  0  0  0  0
    1.7845   -4.6660    0.0000 C   0  0  0  0  0  0  0  0  0  0  0  0
    2.1055   -3.9060    0.0000 C   0  0  0  0  0  0  0  0  0  0  0  0
    2.9241   -3.8040    0.0000 C   0  0  0  0  0  0  0  0  0  0  0  0
    3.4219   -4.4619    0.0000 C   0  0  0  0  0  0  0  0  0  0  0  0
    4.2438   -4.5323    0.0000 C   0  0  1  0  0  0  0  0  0  0  0  0
    4.7839   -3.9086    0.0000 N   0  0  0  0  0  0  0  0  0  0  0  0
    5.5941   -4.0645    0.0000 C   0  0  0  0  0  0  0  0  0  0  0  0
    5.8641   -4.8441    0.0000 O   0  0  0  0  0  0  0  0  0  0  0  0
    6.1342   -3.4409    0.0000 C   0  0  1  0  0  0  0  0  0  0  0  0
    5.8641   -2.6614    0.0000 C   0  0  0  0  0  0  0  0  0  0  0  0
    5.0540   -2.5054    0.0000 C   0  0  0  0  0  0  0  0  0  0  0  0
    4.7839   -1.7259    0.0000 C   0  0  0  0  0  0  0  0  0  0  0  0
    3.9738   -1.5700    0.0000 C   0  0  0  0  0  0  0  0  0  0  0  0
    3.7038   -0.7904    0.0000 C   0  0  0  0  0  0  0  0  0  0  0  0
    4.2438   -0.1668    0.0000 C   0  0  0  0  0  0  0  0  0  0  0  0
    5.0540   -0.3227    0.0000 C   0  0  0  0  0  0  0  0  0  0  0  0
    5.3240   -1.1023    0.0000 C   0  0  0  0  0  0  0  0  0  0  0  0
    6.9443   -3.5968    0.0000 C   0  0  1  0  0  0  0  0  0  0  0  0
    7.2143   -4.3764    0.0000 O   0  0  0  0  0  0  0  0  0  0  0  0
    7.4844   -2.9732    0.0000 C   0  0  2  0  0  0  0  0  0  0  0  0
    7.2143   -2.1936    0.0000 O   0  0  0  0  0  0  0  0  0  0  0  0
    8.2945   -3.1291    0.0000 C   0  0  2  0  0  0  0  0  0  0  0  0
    8.5646   -3.9086    0.0000 C   0  0  0  0  0  0  0  0  0  0  0  0
    9.3747   -4.0645    0.0000 C   0  0  0  0  0  0  0  0  0  0  0  0
    9.6447   -4.8441    0.0000 C   0  0  0  0  0  0  0  0  0  0  0  0
   10.4549   -5.0000    0.0000 C   0  0  0  0  0  0  0  0  0  0  0  0
   10.7249   -5.7796    0.0000 C   0  0  0  0  0  0  0  0  0  0  0  0
   10.1848   -6.4032    0.0000 C   0  0  0  0  0  0  0  0  0  0  0  0
    9.3747   -6.2473    0.0000 C   0  0  0  0  0  0  0  0  0  0  0  0
    9.1046   -5.4677    0.0000 C   0  0  0  0  0  0  0  0  0  0  0  0
    8.8346   -2.5054    0.0000 C   0  0  0  0  0  0  0  0  0  0  0  0
    8.5646   -1.7259    0.0000 O   0  0  0  0  0  0  0  0  0  0  0  0
    9.6447   -2.6614    0.0000 N   0  0  0  0  0  0  0  0  0  0  0  0
   10.1848   -2.0377    0.0000 C   0  0  1  0  0  0  0  0  0  0  0  0
    9.9977   -1.2342    0.0000 C   0  0  2  0  0  0  0  0  0  0  0  0
    9.2377   -0.9133    0.0000 O   0  0  0  0  0  0  0  0  0  0  0  0
   10.7041   -0.8080    0.0000 C   0  0  0  0  0  0  0  0  0  0  0  0
   11.3278   -1.3481    0.0000 C   0  0  0  0  0  0  0  0  0  0  0  0
   12.1464   -1.2460    0.0000 C   0  0  0  0  0  0  0  0  0  0  0  0
   12.6441   -1.9040    0.0000 C   0  0  0  0  0  0  0  0  0  0  0  0
   12.3232   -2.6640    0.0000 C   0  0  0  0  0  0  0  0  0  0  0  0
   11.5045   -2.7660    0.0000 C   0  0  0  0  0  0  0  0  0  0  0  0
   11.0068   -2.1081    0.0000 C   0  0  0  0  0  0  0  0  0  0  0  0
  2  1  1  6  0  0  0
  2  3  1  0  0  0  0
  3  4  1  0  0  0  0
  4  5  2  0  0  0  0
  5  6  1  0  0  0  0
  6  7  2  0  0  0  0
  7  8  1  0  0  0  0
  8  9  2  0  0  0  0
  4  9  1  0  0  0  0
  9 10  1  0  0  0  0
  2 10  1  0  0  0  0
 10 11  1  1  0  0  0
 11 12  1  0  0  0  0
 12 13  2  0  0  0  0
 12 14  1  0  0  0  0
 14 15  1  1  0  0  0
 15 16  1  0  0  0  0
 16 17  1  0  0  0  0
 17 18  2  0  0  0  0
 18 19  1  0  0  0  0
 19 20  2  0  0  0  0
 20 21  1  0  0  0  0
 21 22  2  0  0  0  0
 17 22  1  0  0  0  0
 14 23  1  0  0  0  0
 23 24  1  6  0  0  0
 23 25  1  0  0  0  0
 25 26  1  6  0  0  0
 25 27  1  0  0  0  0
 27 28  1  0  0  0  0
 28 29  1  0  0  0  0
 29 30  1  0  0  0  0
 30 31  2  0  0  0  0
 31 32  1  0  0  0  0
 32 33  2  0  0  0  0
 33 34  1  0  0  0  0
 34 35  2  0  0  0  0
 30 35  1  0  0  0  0
 27 36  1  1  0  0  0
 36 37  2  0  0  0  0
 36 38  1  0  0  0  0
 39 38  1  1  0  0  0
 39 40  1  0  0  0  0
 40 41  1  6  0  0  0
 40 42  1  0  0  0  0
 42 43  1  0  0  0  0
 43 44  2  0  0  0  0
 44 45  1  0  0  0  0
 45 46  2  0  0  0  0
 46 47  1  0  0  0  0
 47 48  2  0  0  0  0
 39 48  1  0  0  0  0
 43 48  1  0  0  0  0
M  END
> <DRUGBANK_ID>
DB02704

> <DRUG_GROUPS>
experimental

> <GENERIC_NAME>
(2r,3r,4r,5r)-3,4-Dihydroxy-N,N'-Bis[(1s,2r)-2-Hydroxy-2,3-Dihydro-1h-Inden-1-Yl]-2,5-Bis(2-Phenylethyl)Hexanediamide

> <CHEMICAL_FORMULA>
C40H44N2O6

> <MOLECULAR_WEIGHT>
648.7872

> <EXACT_MASS>
648.31993715

> <IUPAC_NAME>
(2S,3R,4R,5S)-3,4-dihydroxy-N,N'-bis[(1R,2R)-2-hydroxy-2,3-dihydro-1H-inden-1-yl]-2,5-bis(2-phenylethyl)hexanediamide

> <IUPAC_TRADITIONAL_NAME>
(2S,3R,4R,5S)-3,4-dihydroxy-N,N'-bis[(1R,2R)-2-hydroxy-2,3-dihydro-1H-inden-1-yl]-2,5-bis(2-phenylethyl)hexanediamide

> <INCHI_IDENTIFIER>
InChI=1S/C40H44N2O6/c43-33-23-27-15-7-9-17-29(27)35(33)41-39(47)31(21-19-25-11-3-1-4-12-25)37(45)38(46)32(22-20-26-13-5-2-6-14-26)40(48)42-36-30-18-10-8-16-28(30)24-34(36)44/h1-18,31-38,43-46H,19-24H2,(H,41,47)(H,42,48)/t31-,32-,33+,34+,35+,36+,37+,38+/m0/s1

> <INCHI_KEY>
InChIKey=GQKBYZPVKVXMJL-UGHBPTLLSA-N

> <SMILES>
O[C@@H]([C@H](O)[C@H](CCC1=CC=CC=C1)C(=O)N[C@H]1[C@H](O)CC2=CC=CC=C12)[C@H](CCC1=CC=CC=C1)C(=O)N[C@H]1[C@H](O)CC2=CC=CC=C12

> <JCHEM_ACCEPTOR_COUNT>
6

> <JCHEM_DONOR_COUNT>
6

> <JCHEM_ACIDIC_PKA>
12.66

> <JCHEM_BASIC_PKA>
-0.75

> <JCHEM_PHYSIOLOGICAL_CHARGE>
0

> <ALOGPS_LOGP>
3.31

> <JCHEM_LOGP>
4.69

> <ALOGPS_LOGS>
-5

> <JCHEM_POLARIZABILITY>
71.67

> <JCHEM_POLAR_SURFACE_AREA>
139.12

> <JCHEM_REFRACTIVITY>
183.75

> <JCHEM_ROTATABLE_BOND_COUNT>
13

> <ALOGPS_SOLUBILITY>
6.21e-03 g/l __ 

$$$$
