
  Mrv0541 02231216092D          

 15 14  0  0  1  0            999 V2000
    2.2836    2.1434    0.0000 C   0  0  0  0  0  0  0  0  0  0  0  0
    2.9980    2.5559    0.0000 C   0  0  0  0  0  0  0  0  0  0  0  0
    2.9980    3.3809    0.0000 O   0  0  0  0  0  0  0  0  0  0  0  0
    3.7125    2.1434    0.0000 N   0  0  0  0  0  0  0  0  0  0  0  0
    4.4270    2.5559    0.0000 C   0  0  1  0  0  0  0  0  0  0  0  0
    5.1414    2.1434    0.0000 C   0  0  0  0  0  0  0  0  0  0  0  0
    5.8559    2.5559    0.0000 C   0  0  0  0  0  0  0  0  0  0  0  0
    6.5704    2.1434    0.0000 C   0  0  0  0  0  0  0  0  0  0  0  0
    7.2849    2.5559    0.0000 N   0  0  0  0  0  0  0  0  0  0  0  0
    7.9993    2.1434    0.0000 C   0  0  0  0  0  0  0  0  0  0  0  0
    8.7138    2.5559    0.0000 N   0  0  0  0  0  0  0  0  0  0  0  0
    7.9993    1.3184    0.0000 O   0  0  0  0  0  0  0  0  0  0  0  0
    4.4270    3.3809    0.0000 C   0  0  0  0  0  0  0  0  0  0  0  0
    5.1414    3.7934    0.0000 O   0  0  0  0  0  0  0  0  0  0  0  0
    3.7125    3.7934    0.0000 O   0  0  0  0  0  0  0  0  0  0  0  0
  1  2  1  0  0  0  0
  2  3  2  0  0  0  0
  2  4  1  0  0  0  0
  5  4  1  6  0  0  0
  5  6  1  0  0  0  0
  6  7  1  0  0  0  0
  7  8  1  0  0  0  0
  8  9  1  0  0  0  0
  9 10  1  0  0  0  0
 10 11  1  0  0  0  0
 10 12  2  0  0  0  0
  5 13  1  0  0  0  0
 13 14  1  0  0  0  0
 13 15  2  0  0  0  0
M  END
> <DRUGBANK_ID>
DB02368

> <DRUG_GROUPS>
experimental

> <GENERIC_NAME>
N-Acetyl-L-Citrulline

> <CHEMICAL_FORMULA>
C8H15N3O4

> <MOLECULAR_WEIGHT>
217.2224

> <EXACT_MASS>
217.106255983

> <IUPAC_NAME>
(2S)-5-(carbamoylamino)-2-acetamidopentanoic acid

> <IUPAC_TRADITIONAL_NAME>
N-acetyl-L-citrulline

> <INCHI_IDENTIFIER>
InChI=1S/C8H15N3O4/c1-5(12)11-6(7(13)14)3-2-4-10-8(9)15/h6H,2-4H2,1H3,(H,11,12)(H,13,14)(H3,9,10,15)/t6-/m0/s1

> <INCHI_KEY>
InChIKey=WMQMIOYQXNRROC-LURJTMIESA-N

> <SMILES>
CC(=O)N[C@@H](CCCNC(N)=O)C(O)=O

> <JCHEM_ACCEPTOR_COUNT>
4

> <JCHEM_DONOR_COUNT>
4

> <JCHEM_ACIDIC_PKA>
3.87

> <JCHEM_BASIC_PKA>
-1.1

> <JCHEM_PHYSIOLOGICAL_CHARGE>
-1

> <ALOGPS_LOGP>
-2

> <JCHEM_LOGP>
-1.9

> <ALOGPS_LOGS>
-1.8

> <JCHEM_POLARIZABILITY>
21.5

> <JCHEM_POLAR_SURFACE_AREA>
121.52

> <JCHEM_REFRACTIVITY>
50.77

> <JCHEM_ROTATABLE_BOND_COUNT>
6

> <ALOGPS_SOLUBILITY>
3.57e+00 g/l __ 

$$$$
