
  Mrv0541 02231216012D          

  9  9  0  0  0  0            999 V2000
    0.0000    3.3000    0.0000 O   0  0  0  0  0  0  0  0  0  0  0  0
    0.0000    2.4750    0.0000 C   0  0  0  0  0  0  0  0  0  0  0  0
    0.7145    2.0625    0.0000 C   0  0  0  0  0  0  0  0  0  0  0  0
    0.7145    1.2375    0.0000 C   0  0  0  0  0  0  0  0  0  0  0  0
    1.4289    0.8250    0.0000 C   0  0  0  0  0  0  0  0  0  0  0  0
    1.4289    0.0000    0.0000 C   0  0  0  0  0  0  0  0  0  0  0  0
    0.7145   -0.4125    0.0000 C   0  0  0  0  0  0  0  0  0  0  0  0
    0.0000    0.0000    0.0000 C   0  0  0  0  0  0  0  0  0  0  0  0
    0.0000    0.8250    0.0000 C   0  0  0  0  0  0  0  0  0  0  0  0
  1  2  2  0  0  0  0
  2  3  1  0  0  0  0
  3  4  1  0  0  0  0
  4  5  2  0  0  0  0
  5  6  1  0  0  0  0
  6  7  2  0  0  0  0
  7  8  1  0  0  0  0
  8  9  2  0  0  0  0
  4  9  1  0  0  0  0
M  END
> <DRUGBANK_ID>
DB02178

> <DRUG_GROUPS>
experimental

> <GENERIC_NAME>
Phenylacetaldehyde

> <CHEMICAL_FORMULA>
C8H8O

> <MOLECULAR_WEIGHT>
120.1485

> <EXACT_MASS>
120.057514878

> <IUPAC_NAME>
2-phenylacetaldehyde

> <IUPAC_TRADITIONAL_NAME>
phenylacetaldehyde

> <INCHI_IDENTIFIER>
InChI=1S/C8H8O/c9-7-6-8-4-2-1-3-5-8/h1-5,7H,6H2

> <INCHI_KEY>
InChIKey=DTUQWGWMVIHBKE-UHFFFAOYSA-N

> <SMILES>
O=CCC1=CC=CC=C1

> <JCHEM_ACCEPTOR_COUNT>
1

> <JCHEM_DONOR_COUNT>
0

> <JCHEM_ACIDIC_PKA>
14.98

> <JCHEM_BASIC_PKA>
-7

> <JCHEM_PHYSIOLOGICAL_CHARGE>
0

> <ALOGPS_LOGP>
1.75

> <JCHEM_LOGP>
1.45

> <ALOGPS_LOGS>
-1.8

> <JCHEM_POLARIZABILITY>
12.91

> <JCHEM_POLAR_SURFACE_AREA>
17.07

> <JCHEM_REFRACTIVITY>
36.44

> <JCHEM_ROTATABLE_BOND_COUNT>
2

> <ALOGPS_SOLUBILITY>
2.08e+00 g/l __ 

$$$$
