CK4
  Mrv0541 02231216332D          

 24 26  0  0  0  0            999 V2000
   -0.6847    4.6848    0.0000 F   0  0  0  0  0  0  0  0  0  0  0  0
   -0.6847    3.8598    0.0000 C   0  0  0  0  0  0  0  0  0  0  0  0
   -1.5097    3.8598    0.0000 F   0  0  0  0  0  0  0  0  0  0  0  0
    0.1403    3.8598    0.0000 F   0  0  0  0  0  0  0  0  0  0  0  0
   -0.6847    3.0348    0.0000 C   0  0  0  0  0  0  0  0  0  0  0  0
    0.0298    2.6223    0.0000 C   0  0  0  0  0  0  0  0  0  0  0  0
    0.0298    1.7973    0.0000 C   0  0  0  0  0  0  0  0  0  0  0  0
   -1.3992    2.6223    0.0000 C   0  0  0  0  0  0  0  0  0  0  0  0
   -1.3992    1.7973    0.0000 C   0  0  0  0  0  0  0  0  0  0  0  0
   -0.6847    1.3848    0.0000 C   0  0  0  0  0  0  0  0  0  0  0  0
   -0.6847    0.5598    0.0000 N   0  0  0  0  0  0  0  0  0  0  0  0
    0.0298    0.1473    0.0000 C   0  0  0  0  0  0  0  0  0  0  0  0
    0.7442    0.5598    0.0000 N   0  0  0  0  0  0  0  0  0  0  0  0
    1.4587    0.1473    0.0000 C   0  0  0  0  0  0  0  0  0  0  0  0
    1.4587   -0.6777    0.0000 C   0  0  0  0  0  0  0  0  0  0  0  0
    0.0298   -0.6777    0.0000 N   0  0  0  0  0  0  0  0  0  0  0  0
    0.7442   -1.0902    0.0000 C   0  0  0  0  0  0  0  0  0  0  0  0
    0.7442   -1.9152    0.0000 C   0  0  0  0  0  0  0  0  0  0  0  0
    1.4117   -2.4001    0.0000 S   0  0  0  0  0  0  0  0  0  0  0  0
    0.0768   -2.4001    0.0000 C   0  0  0  0  0  0  0  0  0  0  0  0
   -0.7078   -2.1452    0.0000 C   0  0  0  0  0  0  0  0  0  0  0  0
    0.3317   -3.1847    0.0000 N   0  0  0  0  0  0  0  0  0  0  0  0
    1.1567   -3.1847    0.0000 C   0  0  0  0  0  0  0  0  0  0  0  0
    1.6417   -3.8522    0.0000 C   0  0  0  0  0  0  0  0  0  0  0  0
  1  2  1  0  0  0  0
  2  3  1  0  0  0  0
  2  4  1  0  0  0  0
  2  5  1  0  0  0  0
  5  6  1  0  0  0  0
  5  8  2  0  0  0  0
  6  7  2  0  0  0  0
  7 10  1  0  0  0  0
  8  9  1  0  0  0  0
  9 10  2  0  0  0  0
 10 11  1  0  0  0  0
 11 12  1  0  0  0  0
 12 13  1  0  0  0  0
 12 16  2  0  0  0  0
 13 14  2  0  0  0  0
 14 15  1  0  0  0  0
 15 17  2  0  0  0  0
 16 17  1  0  0  0  0
 17 18  1  0  0  0  0
 18 19  1  0  0  0  0
 18 20  2  0  0  0  0
 19 23  1  0  0  0  0
 20 21  1  0  0  0  0
 20 22  1  0  0  0  0
 22 23  2  0  0  0  0
 23 24  1  0  0  0  0
M  END
> <DRUGBANK_ID>
DB02915

> <DRUG_GROUPS>
experimental

> <GENERIC_NAME>
4-(2,4-Dimethyl-Thiazol-5-Yl)-Pyrimidin-2-Yl]-(4-Trifluoromethyl-Phenyl)-Amine

> <CHEMICAL_FORMULA>
C16H13F3N4S

> <MOLECULAR_WEIGHT>
350.361

> <EXACT_MASS>
350.081301741

> <IUPAC_NAME>
4-(dimethyl-1,3-thiazol-5-yl)-N-[4-(trifluoromethyl)phenyl]pyrimidin-2-amine

> <IUPAC_TRADITIONAL_NAME>
4-(dimethyl-1,3-thiazol-5-yl)-N-[4-(trifluoromethyl)phenyl]pyrimidin-2-amine

> <INCHI_IDENTIFIER>
InChI=1S/C16H13F3N4S/c1-9-14(24-10(2)21-9)13-7-8-20-15(23-13)22-12-5-3-11(4-6-12)16(17,18)19/h3-8H,1-2H3,(H,20,22,23)

> <INCHI_KEY>
InChIKey=MEZFDQUDLQCVNX-UHFFFAOYSA-N

> <SMILES>
CC1=NC(C)=C(S1)C1=CC=NC(NC2=CC=C(C=C2)C(F)(F)F)=N1

> <JCHEM_ACCEPTOR_COUNT>
4

> <JCHEM_DONOR_COUNT>
1

> <JCHEM_ACIDIC_PKA>
13.07

> <JCHEM_BASIC_PKA>
2.69

> <JCHEM_PHYSIOLOGICAL_CHARGE>
0

> <ALOGPS_LOGP>
4.62

> <JCHEM_LOGP>
3.99

> <ALOGPS_LOGS>
-5.2

> <JCHEM_POLARIZABILITY>
32.83

> <JCHEM_POLAR_SURFACE_AREA>
50.7

> <JCHEM_REFRACTIVITY>
85.92

> <JCHEM_ROTATABLE_BOND_COUNT>
4

> <ALOGPS_SOLUBILITY>
2.24e-03 g/l __ 

$$$$
