
  Mrv0541 02231216092D          

 31 32  0  0  1  0            999 V2000
   -1.4289   -2.4750    0.0000 N   0  0  0  0  0  0  0  0  0  0  0  0
   -2.1434   -2.0625    0.0000 C   0  0  0  0  0  0  0  0  0  0  0  0
   -2.8579   -2.4750    0.0000 N   0  0  0  0  0  0  0  0  0  0  0  0
   -3.5724   -2.0625    0.0000 C   0  0  0  0  0  0  0  0  0  0  0  0
   -4.2868   -2.4750    0.0000 O   0  0  0  0  0  0  0  0  0  0  0  0
   -3.5724   -1.2375    0.0000 C   0  0  0  0  0  0  0  0  0  0  0  0
   -4.2868   -0.8250    0.0000 N   0  0  0  0  0  0  0  0  0  0  0  0
   -2.8579   -0.8250    0.0000 C   0  0  0  0  0  0  0  0  0  0  0  0
   -2.8579    0.0000    0.0000 N   0  0  0  0  0  0  0  0  0  0  0  0
   -2.1434    0.4125    0.0000 C   0  0  0  0  0  0  0  0  0  0  0  0
   -1.4289    0.0000    0.0000 O   0  0  0  0  0  0  0  0  0  0  0  0
   -2.1434    1.2375    0.0000 N   0  0  0  0  0  0  0  0  0  0  0  0
   -1.4289    1.6500    0.0000 C   0  0  0  0  0  0  0  0  0  0  0  0
   -1.4289    2.4750    0.0000 C   0  0  0  0  0  0  0  0  0  0  0  0
   -0.7145    2.8875    0.0000 C   0  0  0  0  0  0  0  0  0  0  0  0
    0.0000    2.4750    0.0000 C   0  0  0  0  0  0  0  0  0  0  0  0
    0.0000    1.6500    0.0000 C   0  0  0  0  0  0  0  0  0  0  0  0
   -0.7145    1.2375    0.0000 C   0  0  0  0  0  0  0  0  0  0  0  0
    0.7145    2.8875    0.0000 C   0  0  0  0  0  0  0  0  0  0  0  0
    0.7145    3.7125    0.0000 O   0  0  0  0  0  0  0  0  0  0  0  0
    1.4289    2.4750    0.0000 N   0  0  0  0  0  0  0  0  0  0  0  0
    2.1434    2.8875    0.0000 C   0  0  2  0  0  0  0  0  0  0  0  0
    2.8579    2.4750    0.0000 C   0  0  0  0  0  0  0  0  0  0  0  0
    3.5724    2.8875    0.0000 C   0  0  0  0  0  0  0  0  0  0  0  0
    4.2868    2.4750    0.0000 C   0  0  0  0  0  0  0  0  0  0  0  0
    5.0013    2.8875    0.0000 O   0  0  0  0  0  0  0  0  0  0  0  0
    4.2868    1.6500    0.0000 O   0  0  0  0  0  0  0  0  0  0  0  0
    2.1434    3.7125    0.0000 C   0  0  0  0  0  0  0  0  0  0  0  0
    2.8579    4.1250    0.0000 O   0  0  0  0  0  0  0  0  0  0  0  0
    1.4289    4.1250    0.0000 O   0  0  0  0  0  0  0  0  0  0  0  0
   -2.1434   -1.2375    0.0000 N   0  0  0  0  0  0  0  0  0  0  0  0
  1  2  1  0  0  0  0
  2  3  2  0  0  0  0
  3  4  1  0  0  0  0
  4  5  1  0  0  0  0
  4  6  2  0  0  0  0
  6  7  1  0  0  0  0
  6  8  1  0  0  0  0
  8  9  1  0  0  0  0
  9 10  1  0  0  0  0
 10 11  2  0  0  0  0
 10 12  1  0  0  0  0
 12 13  1  0  0  0  0
 13 14  2  0  0  0  0
 14 15  1  0  0  0  0
 15 16  2  0  0  0  0
 16 17  1  0  0  0  0
 17 18  2  0  0  0  0
 13 18  1  0  0  0  0
 16 19  1  0  0  0  0
 19 20  2  0  0  0  0
 19 21  1  0  0  0  0
 22 21  1  1  0  0  0
 22 23  1  0  0  0  0
 23 24  1  0  0  0  0
 24 25  1  0  0  0  0
 25 26  1  0  0  0  0
 25 27  2  0  0  0  0
 22 28  1  0  0  0  0
 28 29  1  0  0  0  0
 28 30  2  0  0  0  0
  8 31  2  0  0  0  0
  2 31  1  0  0  0  0
M  END
> <DRUGBANK_ID>
DB02358

> <DRUG_GROUPS>
experimental

> <GENERIC_NAME>
LY374571

> <CHEMICAL_FORMULA>
C17H19N7O7

> <MOLECULAR_WEIGHT>
433.3755

> <EXACT_MASS>
433.134595997

> <IUPAC_NAME>
(2R)-2-[(4-{[(2,5-diamino-6-hydroxypyrimidin-4-yl)carbamoyl]amino}phenyl)formamido]pentanedioic acid

> <IUPAC_TRADITIONAL_NAME>
(2R)-2-[(4-{[(2,5-diamino-6-hydroxypyrimidin-4-yl)carbamoyl]amino}phenyl)formamido]pentanedioic acid

> <INCHI_IDENTIFIER>
InChI=1S/C17H19N7O7/c18-11-12(22-16(19)24-14(11)28)23-17(31)20-8-3-1-7(2-4-8)13(27)21-9(15(29)30)5-6-10(25)26/h1-4,9H,5-6,18H2,(H,21,27)(H,25,26)(H,29,30)(H5,19,20,22,23,24,28,31)/t9-/m1/s1

> <INCHI_KEY>
InChIKey=SZHRIPFGZWWRKW-SECBINFHSA-N

> <SMILES>
NC1=NC(O)=C(N)C(NC(=O)NC2=CC=C(C=C2)C(=O)N[C@H](CCC(O)=O)C(O)=O)=N1

> <JCHEM_ACCEPTOR_COUNT>
11

> <JCHEM_DONOR_COUNT>
8

> <JCHEM_ACIDIC_PKA>
3.2

> <JCHEM_BASIC_PKA>
1.75

> <JCHEM_PHYSIOLOGICAL_CHARGE>
-2

> <ALOGPS_LOGP>
-0.8

> <JCHEM_LOGP>
-0.36

> <ALOGPS_LOGS>
-3.1

> <JCHEM_POLARIZABILITY>
40.06

> <JCHEM_POLAR_SURFACE_AREA>
242.88

> <JCHEM_REFRACTIVITY>
110.02

> <JCHEM_ROTATABLE_BOND_COUNT>
8

> <ALOGPS_SOLUBILITY>
3.28e-01 g/l __ 

$$$$
