
  Mrv0541 02231216132D          

 31 34  0  0  0  0            999 V2000
    5.3397   -5.8184    0.0000 C   0  0  0  0  0  0  0  0  0  0  0  0
    4.6253   -5.4059    0.0000 C   0  0  0  0  0  0  0  0  0  0  0  0
    4.6253   -4.5809    0.0000 N   0  0  0  0  0  0  0  0  0  0  0  0
    3.9108   -4.1684    0.0000 S   0  0  0  0  0  0  0  0  0  0  0  0
    3.9108   -3.3434    0.0000 C   0  0  0  0  0  0  0  0  0  0  0  0
    3.1963   -2.9309    0.0000 N   0  0  0  0  0  0  0  0  0  0  0  0
    3.1963   -2.1059    0.0000 C   0  0  0  0  0  0  0  0  0  0  0  0
    3.9108   -1.6934    0.0000 C   0  0  0  0  0  0  0  0  0  0  0  0
    3.9108   -0.8684    0.0000 C   0  0  0  0  0  0  0  0  0  0  0  0
    3.1963   -0.4559    0.0000 C   0  0  0  0  0  0  0  0  0  0  0  0
    2.4818   -0.8684    0.0000 C   0  0  0  0  0  0  0  0  0  0  0  0
    2.4818   -1.6934    0.0000 C   0  0  0  0  0  0  0  0  0  0  0  0
    1.7674   -0.4559    0.0000 C   0  0  0  0  0  0  0  0  0  0  0  0
    1.2697    0.2020    0.0000 O   0  0  0  0  0  0  0  0  0  0  0  0
    1.2273   -1.0796    0.0000 O   0  0  0  0  0  0  0  0  0  0  0  0
    3.1963    0.3691    0.0000 C   0  0  0  0  0  0  0  0  0  0  0  0
    3.9108    0.7816    0.0000 C   0  0  0  0  0  0  0  0  0  0  0  0
    4.6253    0.3691    0.0000 C   0  0  0  0  0  0  0  0  0  0  0  0
    5.3397    0.7816    0.0000 C   0  0  0  0  0  0  0  0  0  0  0  0
    5.3397    1.6066    0.0000 C   0  0  0  0  0  0  0  0  0  0  0  0
    6.0542    2.0191    0.0000 O   0  0  0  0  0  0  0  0  0  0  0  0
    4.6253    2.0191    0.0000 C   0  0  0  0  0  0  0  0  0  0  0  0
    3.9108    1.6066    0.0000 C   0  0  0  0  0  0  0  0  0  0  0  0
    3.1963    2.0191    0.0000 O   0  0  0  0  0  0  0  0  0  0  0  0
    2.4818    1.6066    0.0000 C   0  0  0  0  0  0  0  0  0  0  0  0
    1.7674    2.0191    0.0000 C   0  0  0  0  0  0  0  0  0  0  0  0
    1.0529    1.6066    0.0000 C   0  0  0  0  0  0  0  0  0  0  0  0
    0.3384    2.0191    0.0000 O   0  0  0  0  0  0  0  0  0  0  0  0
    1.0529    0.7816    0.0000 C   0  0  0  0  0  0  0  0  0  0  0  0
    1.7674    0.3691    0.0000 C   0  0  0  0  0  0  0  0  0  0  0  0
    2.4818    0.7816    0.0000 C   0  0  0  0  0  0  0  0  0  0  0  0
  1  2  1  0  0  0  0
  2  3  1  0  0  0  0
  3  4  1  0  0  0  0
  4  5  2  0  0  0  0
  5  6  1  0  0  0  0
  6  7  2  0  0  0  0
  7  8  1  0  0  0  0
  8  9  2  0  0  0  0
  9 10  1  0  0  0  0
 10 11  1  0  0  0  0
 11 12  2  0  0  0  0
  7 12  1  0  0  0  0
 11 13  1  0  0  0  0
 13 14  1  0  0  0  0
 13 15  2  0  0  0  0
 10 16  2  0  0  0  0
 16 17  1  0  0  0  0
 17 18  2  0  0  0  0
 18 19  1  0  0  0  0
 19 20  2  0  0  0  0
 20 21  1  0  0  0  0
 20 22  1  0  0  0  0
 22 23  2  0  0  0  0
 17 23  1  0  0  0  0
 23 24  1  0  0  0  0
 24 25  1  0  0  0  0
 25 26  2  0  0  0  0
 26 27  1  0  0  0  0
 27 28  1  0  0  0  0
 27 29  2  0  0  0  0
 29 30  1  0  0  0  0
 30 31  2  0  0  0  0
 16 31  1  0  0  0  0
 25 31  1  0  0  0  0
M  END
> <DRUGBANK_ID>
DB02455

> <DRUG_GROUPS>
experimental

> <GENERIC_NAME>
Fluoresceinylthioureido

> <CHEMICAL_FORMULA>
C23H19N2O5S

> <MOLECULAR_WEIGHT>
435.472

> <EXACT_MASS>
435.101467418

> <IUPAC_NAME>
(3E)-6-(3,6-dihydroxy-9H-xanthen-9-ylidene)-3-{[(1E)-[(ethylamino)-$l^{4}-sulfanylidene]methyl]imino}cyclohexa-1,4-diene-1-carboxylic acid

> <IUPAC_TRADITIONAL_NAME>
fluoresceinylthioureido

> <INCHI_IDENTIFIER>
InChI=1S/C23H19N2O5S/c1-2-25-31-12-24-13-3-6-16(19(9-13)23(28)29)22-17-7-4-14(26)10-20(17)30-21-11-15(27)5-8-18(21)22/h3-12,25-27H,2H2,1H3,(H,28,29)/b24-13+

> <INCHI_KEY>
InChIKey=OGPGXHCVHUKIGS-ZMOGYAJESA-N

> <SMILES>
CCN\[S]=C\N=C1/C=CC(C(=C1)C(O)=O)=C1C2=CC=C(O)C=C2OC2=CC(O)=CC=C12

> <JCHEM_ACCEPTOR_COUNT>
6

> <JCHEM_DONOR_COUNT>
4

> <JCHEM_ACIDIC_PKA>
3.68

> <JCHEM_BASIC_PKA>
0.98

> <JCHEM_PHYSIOLOGICAL_CHARGE>
-1

> <ALOGPS_LOGP>
2.79

> <JCHEM_LOGP>
4.73

> <ALOGPS_LOGS>
-4.2

> <JCHEM_POLARIZABILITY>
46.46

> <JCHEM_POLAR_SURFACE_AREA>
111.38

> <JCHEM_REFRACTIVITY>
139.8

> <JCHEM_ROTATABLE_BOND_COUNT>
3

> <ALOGPS_SOLUBILITY>
3.08e-02 g/l __ 

$$$$
