
  Mrv0541 02231216072D          

 23 26  0  0  1  0            999 V2000
   -0.9262    2.1355    0.0000 N   0  0  0  0  0  0  0  0  0  0  0  0
   -1.0977    1.3285    0.0000 C   0  0  0  0  0  0  0  0  0  0  0  0
   -0.4846    0.7765    0.0000 N   0  0  0  0  0  0  0  0  0  0  0  0
   -0.6561   -0.0305    0.0000 C   0  0  0  0  0  0  0  0  0  0  0  0
   -1.4407   -0.2854    0.0000 C   0  0  0  0  0  0  0  0  0  0  0  0
   -1.4407   -1.1104    0.0000 N   0  0  0  0  0  0  0  0  0  0  0  0
   -0.6561   -1.3654    0.0000 C   0  0  0  0  0  0  0  0  0  0  0  0
   -0.1712   -0.6979    0.0000 N   0  0  0  0  0  0  0  0  0  0  0  0
    0.6538   -0.6979    0.0000 C   0  0  1  0  0  0  0  0  0  0  0  0
    1.1387   -0.0305    0.0000 O   0  0  0  0  0  0  0  0  0  0  0  0
    1.9233   -0.2854    0.0000 C   0  0  2  0  0  0  0  0  0  0  0  0
    2.6378    0.1271    0.0000 C   0  0  0  0  0  0  0  0  0  0  0  0
    3.3523   -0.2854    0.0000 O   0  0  0  0  0  0  0  0  0  0  0  0
    3.3523   -1.1104    0.0000 P   0  0  2  0  0  0  0  0  0  0  0  0
    4.1648   -0.9672    0.0000 O   0  0  0  0  0  0  0  0  0  0  0  0
    3.6345   -1.8857    0.0000 O   0  0  0  0  0  0  0  0  0  0  0  0
    2.6378   -1.5229    0.0000 O   0  0  0  0  0  0  0  0  0  0  0  0
    1.9233   -1.1104    0.0000 C   0  0  2  0  0  0  0  0  0  0  0  0
    1.1387   -1.3654    0.0000 C   0  0  2  0  0  0  0  0  0  0  0  0
    0.8838   -2.1500    0.0000 O   0  0  0  0  0  0  0  0  0  0  0  0
   -2.0538    0.2666    0.0000 C   0  0  0  0  0  0  0  0  0  0  0  0
   -2.8385    0.0117    0.0000 O   0  0  0  0  0  0  0  0  0  0  0  0
   -1.8823    1.0736    0.0000 N   0  0  0  0  0  0  0  0  0  0  0  0
  1  2  1  0  0  0  0
  2  3  2  0  0  0  0
  3  4  1  0  0  0  0
  4  5  2  0  0  0  0
  5  6  1  0  0  0  0
  6  7  2  0  0  0  0
  7  8  1  0  0  0  0
  4  8  1  0  0  0  0
  9  8  1  1  0  0  0
  9 10  1  0  0  0  0
 11 10  1  6  0  0  0
 11 12  1  0  0  0  0
 12 13  1  0  0  0  0
 13 14  1  0  0  0  0
 14 15  1  1  0  0  0
 14 16  2  0  0  0  0
 14 17  1  0  0  0  0
 18 17  1  6  0  0  0
 11 18  1  0  0  0  0
 18 19  1  0  0  0  0
  9 19  1  0  0  0  0
 19 20  1  6  0  0  0
  5 21  1  0  0  0  0
 21 22  2  0  0  0  0
 21 23  1  0  0  0  0
  2 23  1  0  0  0  0
M  END
> <DRUGBANK_ID>
DB02315

> <DRUG_GROUPS>
experimental

> <GENERIC_NAME>
Cyclic Guanosine Monophosphate

> <SYNONYMS>


> <CHEMICAL_FORMULA>
C10H12N5O7P

> <MOLECULAR_WEIGHT>
345.2053

> <EXACT_MASS>
345.047434275

> <IUPAC_NAME>
9-[(4aR,6S,7S,7aR)-2,7-dihydroxy-2-oxo-hexahydro-1,3,5,2$l^{5}-furo[3,2-d][1,3,2$l^{5}]dioxaphosphinin-6-yl]-2-amino-6,9-dihydro-1H-purin-6-one

> <IUPAC_TRADITIONAL_NAME>
9-[(4aR,6S,7S,7aR)-2,7-dihydroxy-2-oxo-tetrahydro-4H-1,3,5,2$l^{5}-furo[3,2-d][1,3,2$l^{5}]dioxaphosphinin-6-yl]-2-amino-1H-purin-6-one

> <INCHI_IDENTIFIER>
InChI=1S/C10H12N5O7P/c11-10-13-7-4(8(17)14-10)12-2-15(7)9-5(16)6-3(21-9)1-20-23(18,19)22-6/h2-3,5-6,9,16H,1H2,(H,18,19)(H3,11,13,14,17)/t3-,5+,6+,9+/m1/s1

> <INCHI_KEY>
InChIKey=ZOOGRGPOEVQQDX-KHLHZJAASA-N

> <SMILES>
NC1=NC2=C(N=CN2[C@H]2O[C@@H]3CO[P@](O)(=O)O[C@@H]3[C@@H]2O)C(=O)N1

> <JCHEM_ACCEPTOR_COUNT>
8

> <JCHEM_DONOR_COUNT>
4

> <JCHEM_ACIDIC_PKA>
2.05

> <JCHEM_BASIC_PKA>
1.41

> <JCHEM_PHYSIOLOGICAL_CHARGE>
-1

> <ALOGPS_LOGP>
-2

> <JCHEM_LOGP>
-2.1

> <ALOGPS_LOGS>
-2

> <JCHEM_POLARIZABILITY>
29.14

> <JCHEM_POLAR_SURFACE_AREA>
170.52

> <JCHEM_REFRACTIVITY>
71.71

> <JCHEM_ROTATABLE_BOND_COUNT>
1

> <ALOGPS_SOLUBILITY>
3.79e+00 g/l __ 

$$$$
