
  Mrv0541 02231215542D          

 28 29  0  0  0  0            999 V2000
    7.8592   -4.5375    0.0000 C    0  0  0  0  0  0  0  0  0  0  0  0
    7.8592   -3.7125    0.0000 N    0  0  0  0  0  0  0  0  0  0  0  0
    7.1447   -3.3000    0.0000 C    0  0  0  0  0  0  0  0  0  0  0  0
    6.4302   -3.7125    0.0000 C    0  0  0  0  0  0  0  0  0  0  0  0
    5.7158   -3.3000    0.0000 C    0  0  0  0  0  0  0  0  0  0  0  0
    5.0013   -3.7125    0.0000 C    0  0  0  0  0  0  0  0  0  0  0  0
    4.2868   -3.3000    0.0000 C    0  0  0  0  0  0  0  0  0  0  0  0
    3.5724   -3.7125    0.0000 C    0  0  0  0  0  0  0  0  0  0  0  0
    2.8579   -3.3000    0.0000 O    0  0  0  0  0  0  0  0  0  0  0  0
    2.1434   -3.7125    0.0000 C    0  0  0  0  0  0  0  0  0  0  0  0
    2.1434   -4.5375    0.0000 C    0  0  0  0  0  0  0  0  0  0  0  0
    1.4289   -4.9500    0.0000 C    0  0  0  0  0  0  0  0  0  0  0  0
    0.7145   -4.5375    0.0000 C    0  0  0  0  0  0  0  0  0  0  0  0
    0.7145   -3.7125    0.0000 C    0  0  0  0  0  0  0  0  0  0  0  0
    0.0000   -3.3000    0.0000 F    0  0  0  0  0  0  0  0  0  0  0  0
    1.4289   -3.3000    0.0000 C    0  0  0  0  0  0  0  0  0  0  0  0
    0.0000   -4.9500    0.0000 C    0  0  0  0  0  0  0  0  0  0  0  0
    0.0000   -5.7750    0.0000 O    0  0  0  0  0  0  0  0  0  0  0  0
   -0.7145   -4.5375    0.0000 C    0  0  0  0  0  0  0  0  0  0  0  0
   -1.4289   -4.9500    0.0000 C    0  0  0  0  0  0  0  0  0  0  0  0
   -2.1434   -4.5375    0.0000 C    0  0  0  0  0  0  0  0  0  0  0  0
   -2.1434   -3.7125    0.0000 C    0  0  0  0  0  0  0  0  0  0  0  0
   -2.8579   -3.3000    0.0000 Br   0  0  0  0  0  0  0  0  0  0  0  0
   -1.4289   -3.3000    0.0000 C    0  0  0  0  0  0  0  0  0  0  0  0
   -0.7145   -3.7125    0.0000 C    0  0  0  0  0  0  0  0  0  0  0  0
    8.5737   -3.3000    0.0000 C    0  0  0  0  0  0  0  0  0  0  0  0
    9.2881   -3.7125    0.0000 C    0  0  0  0  0  0  0  0  0  0  0  0
   10.0026   -3.3000    0.0000 C    0  0  0  0  0  0  0  0  0  0  0  0
  1  2  1  0  0  0  0
  2  3  1  0  0  0  0
  3  4  1  0  0  0  0
  4  5  1  0  0  0  0
  5  6  1  0  0  0  0
  6  7  1  0  0  0  0
  7  8  1  0  0  0  0
  8  9  1  0  0  0  0
  9 10  1  0  0  0  0
 10 11  2  0  0  0  0
 11 12  1  0  0  0  0
 12 13  2  0  0  0  0
 13 14  1  0  0  0  0
 14 15  1  0  0  0  0
 14 16  2  0  0  0  0
 10 16  1  0  0  0  0
 13 17  1  0  0  0  0
 17 18  2  0  0  0  0
 17 19  1  0  0  0  0
 19 20  2  0  0  0  0
 20 21  1  0  0  0  0
 21 22  2  0  0  0  0
 22 23  1  0  0  0  0
 22 24  1  0  0  0  0
 24 25  2  0  0  0  0
 19 25  1  0  0  0  0
  2 26  1  0  0  0  0
 26 27  1  0  0  0  0
 27 28  2  0  0  0  0
M  END
> <DRUGBANK_ID>
DB02016

> <DRUG_GROUPS>
experimental

> <GENERIC_NAME>
R048-8071

> <CHEMICAL_FORMULA>
C23H27BrFNO2

> <MOLECULAR_WEIGHT>
448.368

> <EXACT_MASS>
447.120919965

> <IUPAC_NAME>
(6-{4-[(4-bromophenyl)carbonyl]-3-fluorophenoxy}hexyl)(methyl)(prop-2-en-1-yl)amine

> <IUPAC_TRADITIONAL_NAME>
(6-{4-[(4-bromophenyl)carbonyl]-3-fluorophenoxy}hexyl)(methyl)prop-2-en-1-ylamine

> <INCHI_IDENTIFIER>
InChI=1S/C23H27BrFNO2/c1-3-14-26(2)15-6-4-5-7-16-28-20-12-13-21(22(25)17-20)23(27)18-8-10-19(24)11-9-18/h3,8-13,17H,1,4-7,14-16H2,2H3

> <INCHI_KEY>
InChIKey=CMYCCJYVZIMDFU-UHFFFAOYSA-N

> <SMILES>
CN(CCCCCCOC1=CC=C(C(=O)C2=CC=C(Br)C=C2)C(F)=C1)CC=C

> <JCHEM_ACCEPTOR_COUNT>
3

> <JCHEM_DONOR_COUNT>
0

> <JCHEM_BASIC_PKA>
9.42

> <JCHEM_PHYSIOLOGICAL_CHARGE>
1

> <ALOGPS_LOGP>
5.57

> <JCHEM_LOGP>
6.4

> <ALOGPS_LOGS>
-6.5

> <JCHEM_POLARIZABILITY>
46.06

> <JCHEM_POLAR_SURFACE_AREA>
29.54

> <JCHEM_REFRACTIVITY>
116.83

> <JCHEM_ROTATABLE_BOND_COUNT>
12

> <ALOGPS_SOLUBILITY>
1.55e-04 g/l __ 

$$$$
