
  Mrv0541 02231216182D          

 43 50  0  0  1  0            999 V2000
    0.8839   -0.8150    0.0000 C    0  0  0  0  0  0  0  0  0  0  0  0
    1.5815   -0.3746    0.0000 C    0  0  0  0  0  0  0  0  0  0  0  0
    1.6353    0.4486    0.0000 C    0  0  0  0  0  0  0  0  0  0  0  0
    1.0008    0.9760    0.0000 C    0  0  0  0  0  0  0  0  0  0  0  0
    0.2269    0.6903    0.0000 C    0  0  0  0  0  0  0  0  0  0  0  0
   -0.4075    1.2176    0.0000 C    0  0  0  0  0  0  0  0  0  0  0  0
   -1.1815    0.9319    0.0000 O    0  0  0  0  0  0  0  0  0  0  0  0
   -0.2680    2.0308    0.0000 O    0  0  0  0  0  0  0  0  0  0  0  0
    2.4348    0.6519    0.0000 C    0  0  0  0  0  0  0  0  0  0  0  0
    2.9554    1.5893    0.0000 C    0  0  0  0  0  0  0  0  0  0  0  0
    3.6697    2.0020    0.0000 C    0  0  0  0  0  0  0  0  0  0  0  0
    4.3042    1.4746    0.0000 N    0  3  0  0  0  0  0  0  0  0  0  0
    5.0018    1.9151    0.0000 C    0  0  0  0  0  0  0  0  0  0  0  0
    5.9392    1.3945    0.0000 C    0  0  0  0  0  0  0  0  0  0  0  0
    6.3519    0.6802    0.0000 C    0  0  0  0  0  0  0  0  0  0  0  0
    7.1183    0.3746    0.0000 C    0  0  0  0  0  0  0  0  0  0  0  0
    7.8159    0.8150    0.0000 C    0  0  0  0  0  0  0  0  0  0  0  0
    7.7833    1.6394    0.0000 C    0  0  0  0  0  0  0  0  0  0  0  0
    7.0645   -0.4486    0.0000 C    0  0  0  0  0  0  0  0  0  0  0  0
    7.6989   -0.9760    0.0000 C    0  0  0  0  0  0  0  0  0  0  0  0
    6.2649   -0.6519    0.0000 C    0  0  0  0  0  0  0  0  0  0  0  0
    5.7444   -1.5893    0.0000 C    0  0  0  0  0  0  0  0  0  0  0  0
    5.0300   -2.0020    0.0000 C    0  0  0  0  0  0  0  0  0  0  0  0
    4.7245   -2.7684    0.0000 C    0  0  0  0  0  0  0  0  0  0  0  0
    5.1649   -3.4660    0.0000 C    0  0  0  0  0  0  0  0  0  0  0  0
    4.7810   -4.1962    0.0000 C    0  0  0  0  0  0  0  0  0  0  0  0
    3.9013   -2.7146    0.0000 C    0  0  0  0  0  0  0  0  0  0  0  0
    3.3739   -3.3490    0.0000 C    0  0  0  0  0  0  0  0  0  0  0  0
    3.6980   -1.9151    0.0000 C    0  0  0  0  0  0  0  0  0  0  0  0
    4.3956   -1.4746    0.0000 N    0  3  0  0  0  0  0  0  0  0  0  0
    4.3499    0.0000    0.0000 Fe   0  0  1  0  0  0  0  0  0  0  0  0
    2.8752   -0.0457    0.0000 N    0  0  0  0  0  0  0  0  0  0  0  0
    2.3479   -0.6802    0.0000 C    0  0  0  0  0  0  0  0  0  0  0  0
    2.7605   -1.3945    0.0000 C    0  0  0  0  0  0  0  0  0  0  0  0
    5.8245    0.0457    0.0000 N    0  0  0  0  0  0  0  0  0  0  0  0
    4.7985    2.7146    0.0000 C    0  0  0  0  0  0  0  0  0  0  0  0
    5.3259    3.3490    0.0000 C    0  0  0  0  0  0  0  0  0  0  0  0
    3.9753    2.7684    0.0000 C    0  0  0  0  0  0  0  0  0  0  0  0
    3.5348    3.4660    0.0000 C    0  0  0  0  0  0  0  0  0  0  0  0
    2.7105    3.4334    0.0000 C    0  0  0  0  0  0  0  0  0  0  0  0
    2.3265    2.7032    0.0000 C    0  0  0  0  0  0  0  0  0  0  0  0
    2.7669    2.0056    0.0000 O    0  0  0  0  0  0  0  0  0  0  0  0
    1.5022    2.6706    0.0000 O    0  0  0  0  0  0  0  0  0  0  0  0
  1  2  1  0  0  0  0
  2  3  2  0  0  0  0
  3  4  1  0  0  0  0
  4  5  1  0  0  0  0
  5  6  1  0  0  0  0
  6  7  1  0  0  0  0
  6  8  2  0  0  0  0
  3  9  1  0  0  0  0
  9 10  2  0  0  0  0
 10 11  1  0  0  0  0
 11 12  2  0  0  0  0
 12 13  1  0  0  0  0
 13 14  2  0  0  0  0
 14 15  1  0  0  0  0
 15 16  2  0  0  0  0
 16 17  1  0  0  0  0
 17 18  2  0  0  0  0
 16 19  1  0  0  0  0
 19 20  1  0  0  0  0
 19 21  2  0  0  0  0
 21 22  1  0  0  0  0
 22 23  2  0  0  0  0
 23 24  1  0  0  0  0
 24 25  1  0  0  0  0
 25 26  2  0  0  0  0
 24 27  2  0  0  0  0
 27 28  1  0  0  0  0
 27 29  1  0  0  0  0
 29 30  2  0  0  0  0
 23 30  1  0  0  0  0
 31 30  1  1  0  0  0
 12 31  1  0  0  0  0
 31 32  1  0  0  0  0
  9 32  1  0  0  0  0
 32 33  1  0  0  0  0
  2 33  1  0  0  0  0
 33 34  2  0  0  0  0
 29 34  1  0  0  0  0
 31 35  1  0  0  0  0
 15 35  1  0  0  0  0
 21 35  1  0  0  0  0
 13 36  1  0  0  0  0
 36 37  1  0  0  0  0
 36 38  2  0  0  0  0
 11 38  1  0  0  0  0
 38 39  1  0  0  0  0
 39 40  1  0  0  0  0
 40 41  1  0  0  0  0
 41 42  1  0  0  0  0
 41 43  2  0  0  0  0
M  END
> <DRUGBANK_ID>
DB02577

> <DRUG_GROUPS>
experimental

> <GENERIC_NAME>
Mesoheme

> <CHEMICAL_FORMULA>
C34H32FeN4O4

> <MOLECULAR_WEIGHT>
616.487

> <EXACT_MASS>
616.177297665

> <IUPAC_NAME>
(1R)-15,19-bis(2-carboxyethyl)-5,10-diethenyl-4,9,14,20-tetramethyl-2$l^{5},22,23$l^{5},25-tetraaza-1-ferraoctacyclo[11.9.1.1^{1,8}.1^{3,21}.0^{2,6}.0^{16,23}.0^{18,22}.0^{11,25}]pentacosa-2,4,6,8,10,12,14,16(23),17,19,21(24)-undecaene-2,23-bis(ylium)

> <IUPAC_TRADITIONAL_NAME>
mesoheme

> <INCHI_IDENTIFIER>
InChI=1S/C34H34N4O4.Fe/c1-7-21-17(3)25-13-26-19(5)23(9-11-33(39)40)31(37-26)16-32-24(10-12-34(41)42)20(6)28(38-32)15-30-22(8-2)18(4)27(36-30)14-29(21)35-25;/h7-8,13-16H,1-2,9-12H2,3-6H3,(H4,35,36,37,38,39,40,41,42);/q;+4/p-2/b25-13-,26-13-,27-14-,28-15-,29-14-,30-15-,31-16-,32-16-;

> <INCHI_KEY>
InChIKey=YHLKGEDAGPGZPN-RGGAHWMASA-L

> <SMILES>
CC1=C(CCC(O)=O)C2=CC3=[N+]4C(=CC5=C(C=C)C(C)=C6C=C7C(C=C)=C(C)C8=[N+]7[Fe@]4(N2C1=C8)N56)C(C)=C3CCC(O)=O

> <JCHEM_ACCEPTOR_COUNT>
4

> <JCHEM_DONOR_COUNT>
2

> <JCHEM_ACIDIC_PKA>
3.28

> <JCHEM_PHYSIOLOGICAL_CHARGE>
0

> <ALOGPS_LOGP>
0.29

> <JCHEM_LOGP>
2.19

> <ALOGPS_LOGS>
-5.6

> <JCHEM_POLARIZABILITY>
69.61

> <JCHEM_POLAR_SURFACE_AREA>
92.22

> <JCHEM_REFRACTIVITY>
169.77

> <JCHEM_ROTATABLE_BOND_COUNT>
8

> <ALOGPS_SOLUBILITY>
1.61e-03 g/l __ 

$$$$
