124
  Mrv0541 02231216132D          

 19 21  0  0  0  0            999 V2000
    1.9560    0.1081    0.0000 C   0  0  0  0  0  0  0  0  0  0  0  0
    1.9560   -0.7169    0.0000 C   0  0  0  0  0  0  0  0  0  0  0  0
    1.2416   -1.1294    0.0000 C   0  0  0  0  0  0  0  0  0  0  0  0
    0.5271   -0.7169    0.0000 C   0  0  0  0  0  0  0  0  0  0  0  0
    0.5271    0.1081    0.0000 C   0  0  0  0  0  0  0  0  0  0  0  0
    1.2416    0.5206    0.0000 C   0  0  0  0  0  0  0  0  0  0  0  0
    2.6705    0.5206    0.0000 C   0  0  0  0  0  0  0  0  0  0  0  0
    3.3850    0.1081    0.0000 N   0  0  0  0  0  0  0  0  0  0  0  0
    2.6705    1.3456    0.0000 N   0  3  0  0  0  0  0  0  0  0  0  0
   -0.2575   -0.9718    0.0000 N   0  0  0  0  0  0  0  0  0  0  0  0
   -0.2575    0.3630    0.0000 C   0  0  0  0  0  0  0  0  0  0  0  0
   -0.7424   -0.3044    0.0000 C   0  0  0  0  0  0  0  0  0  0  0  0
   -1.5674   -0.3044    0.0000 C   0  0  0  0  0  0  0  0  0  0  0  0
   -1.9799   -1.0189    0.0000 C   0  0  0  0  0  0  0  0  0  0  0  0
   -2.8049   -1.0189    0.0000 C   0  0  0  0  0  0  0  0  0  0  0  0
   -3.2174   -0.3044    0.0000 C   0  0  0  0  0  0  0  0  0  0  0  0
   -2.8049    0.4101    0.0000 C   0  0  0  0  0  0  0  0  0  0  0  0
   -1.9799    0.4101    0.0000 C   0  0  0  0  0  0  0  0  0  0  0  0
   -1.5674    1.1245    0.0000 O   0  0  0  0  0  0  0  0  0  0  0  0
  1  2  1  0  0  0  0
  1  6  2  0  0  0  0
  1  7  1  0  0  0  0
  2  3  2  0  0  0  0
  3  4  1  0  0  0  0
  4  5  2  0  0  0  0
  4 10  1  0  0  0  0
  5  6  1  0  0  0  0
  5 11  1  0  0  0  0
  7  8  1  0  0  0  0
  7  9  2  0  0  0  0
 10 12  1  0  0  0  0
 11 12  2  0  0  0  0
 12 13  1  0  0  0  0
 13 14  2  0  0  0  0
 13 18  1  0  0  0  0
 14 15  1  0  0  0  0
 15 16  2  0  0  0  0
 16 17  1  0  0  0  0
 17 18  2  0  0  0  0
 18 19  1  0  0  0  0
M  END
> <DRUGBANK_ID>
DB02463

> <DRUG_GROUPS>
experimental

> <GENERIC_NAME>
2-(2-Hydroxy-Phenyl)-1h-Indole-5-Carboxamidine

> <CHEMICAL_FORMULA>
C15H14N3O

> <MOLECULAR_WEIGHT>
252.2912

> <EXACT_MASS>
252.113687085

> <IUPAC_NAME>
{amino[2-(2-hydroxyphenyl)-1H-indol-5-yl]methylidene}azanium

> <IUPAC_TRADITIONAL_NAME>
{amino[2-(2-hydroxyphenyl)-1H-indol-5-yl]methylidene}azanium

> <INCHI_IDENTIFIER>
InChI=1S/C15H13N3O/c16-15(17)9-5-6-12-10(7-9)8-13(18-12)11-3-1-2-4-14(11)19/h1-8,18-19H,(H3,16,17)/p+1

> <INCHI_KEY>
InChIKey=JPGNPKIYCTXJPG-UHFFFAOYSA-O

> <SMILES>
NC(=[NH2+])C1=CC2=C(NC(=C2)C2=CC=CC=C2O)C=C1

> <JCHEM_ACCEPTOR_COUNT>
2

> <JCHEM_DONOR_COUNT>
4

> <JCHEM_ACIDIC_PKA>
9.64

> <JCHEM_BASIC_PKA>
11.23

> <JCHEM_PHYSIOLOGICAL_CHARGE>
1

> <ALOGPS_LOGP>
0.79

> <JCHEM_LOGP>
1.77

> <ALOGPS_LOGS>
-4.1

> <JCHEM_POLARIZABILITY>
28.04

> <JCHEM_POLAR_SURFACE_AREA>
87.63

> <JCHEM_REFRACTIVITY>
86.61

> <JCHEM_ROTATABLE_BOND_COUNT>
2

> <ALOGPS_SOLUBILITY>
2.25e-02 g/l __ 

$$$$
