
  Mrv0541 02231215552D          

 34 38  0  0  1  0            999 V2000
   -0.2135    0.8531    0.0000 O   0  0  0  0  0  0  0  0  0  0  0  0
   -0.2135    0.0281    0.0000 C   0  0  0  0  0  0  0  0  0  0  0  0
   -0.9280   -0.3844    0.0000 C   0  0  0  0  0  0  0  0  0  0  0  0
   -1.6425    0.0281    0.0000 C   0  0  1  0  0  0  0  0  0  0  0  0
   -1.6425    0.8531    0.0000 C   0  0  0  0  0  0  0  0  0  0  0  0
   -2.0550    1.5676    0.0000 C   0  0  0  0  0  0  0  0  0  0  0  0
   -1.2300    1.5676    0.0000 C   0  0  0  0  0  0  0  0  0  0  0  0
   -2.3569   -0.3844    0.0000 C   0  0  0  0  0  0  0  0  0  0  0  0
   -2.3569   -1.2094    0.0000 C   0  0  0  0  0  0  0  0  0  0  0  0
   -3.0714   -1.6219    0.0000 C   0  0  0  0  0  0  0  0  0  0  0  0
   -3.7859   -1.2094    0.0000 C   0  0  0  0  0  0  0  0  0  0  0  0
   -3.7859   -0.3844    0.0000 C   0  0  0  0  0  0  0  0  0  0  0  0
   -4.5004    0.0281    0.0000 N   0  0  0  0  0  0  0  0  0  0  0  0
   -5.2148   -0.3844    0.0000 S   0  0  0  0  0  0  0  0  0  0  0  0
   -4.8023   -1.0989    0.0000 O   0  0  0  0  0  0  0  0  0  0  0  0
   -5.6273    0.3301    0.0000 O   0  0  0  0  0  0  0  0  0  0  0  0
   -5.9293   -0.7969    0.0000 C   0  0  0  0  0  0  0  0  0  0  0  0
   -5.9293   -1.6219    0.0000 C   0  0  0  0  0  0  0  0  0  0  0  0
   -6.6438   -2.0344    0.0000 C   0  0  0  0  0  0  0  0  0  0  0  0
   -7.3582   -1.6219    0.0000 C   0  0  0  0  0  0  0  0  0  0  0  0
   -7.3582   -0.7969    0.0000 C   0  0  0  0  0  0  0  0  0  0  0  0
   -6.6438   -0.3844    0.0000 C   0  0  0  0  0  0  0  0  0  0  0  0
   -3.0714    0.0281    0.0000 C   0  0  0  0  0  0  0  0  0  0  0  0
   -0.9280   -1.2094    0.0000 C   0  0  0  0  0  0  0  0  0  0  0  0
   -1.6425   -1.6219    0.0000 O   0  0  0  0  0  0  0  0  0  0  0  0
   -0.2135   -1.6219    0.0000 O   0  0  0  0  0  0  0  0  0  0  0  0
    0.5009   -1.2094    0.0000 C   0  0  0  0  0  0  0  0  0  0  0  0
    0.5009   -0.3844    0.0000 C   0  0  0  0  0  0  0  0  0  0  0  0
    1.0843    0.1990    0.0000 C   0  0  0  0  0  0  0  0  0  0  0  0
    1.9093    0.1990    0.0000 C   0  0  0  0  0  0  0  0  0  0  0  0
    2.4927   -0.3844    0.0000 C   0  0  0  0  0  0  0  0  0  0  0  0
    2.4927   -1.2094    0.0000 C   0  0  0  0  0  0  0  0  0  0  0  0
    1.9093   -1.7928    0.0000 C   0  0  0  0  0  0  0  0  0  0  0  0
    1.0843   -1.7928    0.0000 C   0  0  0  0  0  0  0  0  0  0  0  0
  1  2  1  0  0  0  0
  2  3  2  0  0  0  0
  3  4  1  0  0  0  0
  4  5  1  0  0  0  0
  5  6  1  0  0  0  0
  6  7  1  0  0  0  0
  5  7  1  0  0  0  0
  4  8  1  6  0  0  0
  8  9  2  0  0  0  0
  9 10  1  0  0  0  0
 10 11  2  0  0  0  0
 11 12  1  0  0  0  0
 12 13  1  0  0  0  0
 13 14  1  0  0  0  0
 14 15  2  0  0  0  0
 14 16  2  0  0  0  0
 14 17  1  0  0  0  0
 17 18  2  0  0  0  0
 18 19  1  0  0  0  0
 19 20  2  0  0  0  0
 20 21  1  0  0  0  0
 21 22  2  0  0  0  0
 17 22  1  0  0  0  0
 12 23  2  0  0  0  0
  8 23  1  0  0  0  0
  3 24  1  0  0  0  0
 24 25  2  0  0  0  0
 24 26  1  0  0  0  0
 26 27  1  0  0  0  0
 27 28  2  0  0  0  0
  2 28  1  0  0  0  0
 28 29  1  0  0  0  0
 29 30  1  0  0  0  0
 30 31  1  0  0  0  0
 31 32  1  0  0  0  0
 32 33  1  0  0  0  0
 33 34  1  0  0  0  0
 27 34  1  0  0  0  0
M  END
> <DRUGBANK_ID>
DB02033

> <DRUG_GROUPS>
experimental

> <GENERIC_NAME>
N-(3-Cyclopropyl(5,6,7,8,9,10-Hexahydro-2-Oxo-2h-Cycloocta[B]Pyran-3-Yl)Methyl)Phenylbenzensulfonamide

> <CHEMICAL_FORMULA>
C27H29NO5S

> <MOLECULAR_WEIGHT>
479.588

> <EXACT_MASS>
479.176643733

> <IUPAC_NAME>
N-{3-[(S)-cyclopropyl({4-hydroxy-2-oxo-2H,5H,6H,7H,8H,9H,10H-cycloocta[b]pyran-3-yl})methyl]phenyl}benzenesulfonamide

> <IUPAC_TRADITIONAL_NAME>
N-{3-[(S)-cyclopropyl({4-hydroxy-2-oxo-5H,6H,7H,8H,9H,10H-cycloocta[b]pyran-3-yl})methyl]phenyl}benzenesulfonamide

> <INCHI_IDENTIFIER>
InChI=1S/C27H29NO5S/c29-26-22-13-6-1-2-7-14-23(22)33-27(30)25(26)24(18-15-16-18)19-9-8-10-20(17-19)28-34(31,32)21-11-4-3-5-12-21/h3-5,8-12,17-18,24,28-29H,1-2,6-7,13-16H2/t24-/m0/s1

> <INCHI_KEY>
InChIKey=GDRNWAKVNIROCG-DEOSSOPVSA-N

> <SMILES>
OC1=C([C@@H](C2CC2)C2=CC=CC(NS(=O)(=O)C3=CC=CC=C3)=C2)C(=O)OC2=C1CCCCCC2

> <JCHEM_ACCEPTOR_COUNT>
4

> <JCHEM_DONOR_COUNT>
2

> <JCHEM_ACIDIC_PKA>
6.89

> <JCHEM_BASIC_PKA>
-6.3

> <JCHEM_PHYSIOLOGICAL_CHARGE>
-1

> <ALOGPS_LOGP>
4.71

> <JCHEM_LOGP>
5.2

> <ALOGPS_LOGS>
-5.4

> <JCHEM_POLARIZABILITY>
51.66

> <JCHEM_POLAR_SURFACE_AREA>
92.7

> <JCHEM_REFRACTIVITY>
132.4

> <JCHEM_ROTATABLE_BOND_COUNT>
5

> <ALOGPS_SOLUBILITY>
1.73e-03 g/l __ 

$$$$
