
  Mrv0541 02231216062D          

  8  7  0  0  0  0            999 V2000
    2.0625    0.7145    0.0000 N   0  0  0  0  0  0  0  0  0  0  0  0
    1.2375    0.7145    0.0000 C   0  0  0  0  0  0  0  0  0  0  0  0
    0.8250    1.4289    0.0000 C   0  0  0  0  0  0  0  0  0  0  0  0
    1.2375    2.1434    0.0000 O   0  0  0  0  0  0  0  0  0  0  0  0
    0.0000    1.4289    0.0000 O   0  0  0  0  0  0  0  0  0  0  0  0
    0.8250    0.0000    0.0000 C   0  0  0  0  0  0  0  0  0  0  0  0
    1.2375   -0.7145    0.0000 O   0  0  0  0  0  0  0  0  0  0  0  0
    0.0000    0.0000    0.0000 O   0  0  0  0  0  0  0  0  0  0  0  0
  1  2  1  0  0  0  0
  2  3  1  0  0  0  0
  3  4  1  0  0  0  0
  3  5  2  0  0  0  0
  2  6  1  0  0  0  0
  6  7  1  0  0  0  0
  6  8  2  0  0  0  0
M  END
> <DRUGBANK_ID>
DB02289

> <DRUG_GROUPS>
experimental

> <GENERIC_NAME>
2-Aminopropanedioic Acid

> <CHEMICAL_FORMULA>
C3H5NO4

> <MOLECULAR_WEIGHT>
119.0761

> <EXACT_MASS>
119.021857653

> <IUPAC_NAME>
2-aminopropanedioic acid

> <IUPAC_TRADITIONAL_NAME>
2-aminopropanedioic acid

> <INCHI_IDENTIFIER>
InChI=1S/C3H5NO4/c4-1(2(5)6)3(7)8/h1H,4H2,(H,5,6)(H,7,8)

> <INCHI_KEY>
InChIKey=JINBYESILADKFW-UHFFFAOYSA-N

> <SMILES>
NC(C(O)=O)C(O)=O

> <JCHEM_ACCEPTOR_COUNT>
5

> <JCHEM_DONOR_COUNT>
3

> <JCHEM_ACIDIC_PKA>
0.45

> <JCHEM_BASIC_PKA>
8.5

> <JCHEM_PHYSIOLOGICAL_CHARGE>
-1

> <ALOGPS_LOGP>
-3.5

> <JCHEM_LOGP>
-3.4

> <ALOGPS_LOGS>
0.03

> <JCHEM_POLARIZABILITY>
9.48

> <JCHEM_POLAR_SURFACE_AREA>
100.62

> <JCHEM_REFRACTIVITY>
21.98

> <JCHEM_ROTATABLE_BOND_COUNT>
2

> <ALOGPS_SOLUBILITY>
1.26e+02 g/l __ 

$$$$
