
  Mrv0541 02231216242D          

 15 15  0  0  1  0            999 V2000
    2.0572    1.7262    0.0000 N   0  0  0  0  0  0  0  0  0  0  0  0
    1.2448    1.8695    0.0000 C   0  0  0  0  0  0  0  0  0  0  0  0
    0.9626    2.6447    0.0000 O   0  0  0  0  0  0  0  0  0  0  0  0
    0.7145    1.2375    0.0000 C   0  0  2  0  0  0  0  0  0  0  0  0
    0.1842    1.8695    0.0000 O   0  0  0  0  0  0  0  0  0  0  0  0
    1.4289    0.8250    0.0000 O   0  0  0  0  0  0  0  0  0  0  0  0
    1.4289    0.0000    0.0000 C   0  0  1  0  0  0  0  0  0  0  0  0
    2.1434   -0.4125    0.0000 C   0  0  0  0  0  0  0  0  0  0  0  0
    2.8579    0.0000    0.0000 O   0  0  0  0  0  0  0  0  0  0  0  0
    0.7145   -0.4125    0.0000 C   0  0  2  0  0  0  0  0  0  0  0  0
    0.7145   -1.2375    0.0000 O   0  0  0  0  0  0  0  0  0  0  0  0
    0.0000    0.0000    0.0000 C   0  0  1  0  0  0  0  0  0  0  0  0
   -0.7145   -0.4125    0.0000 O   0  0  0  0  0  0  0  0  0  0  0  0
    0.0000    0.8250    0.0000 C   0  0  1  0  0  0  0  0  0  0  0  0
   -0.7145    1.2375    0.0000 O   0  0  0  0  0  0  0  0  0  0  0  0
  1  2  1  0  0  0  0
  2  3  2  0  0  0  0
  4  2  1  6  0  0  0
  4  5  1  1  0  0  0
  4  6  1  0  0  0  0
  6  7  1  0  0  0  0
  7  8  1  1  0  0  0
  8  9  1  0  0  0  0
  7 10  1  0  0  0  0
 10 11  1  6  0  0  0
 10 12  1  0  0  0  0
 12 13  1  1  0  0  0
 12 14  1  0  0  0  0
  4 14  1  0  0  0  0
 14 15  1  1  0  0  0
M  END
> <DRUGBANK_ID>
DB02719

> <DRUG_GROUPS>
experimental

> <GENERIC_NAME>
C-(1-Hydrogyl-Beta-D-Glucopyranosyl) Formamide

> <CHEMICAL_FORMULA>
C7H13NO7

> <MOLECULAR_WEIGHT>
223.1806

> <EXACT_MASS>
223.069201775

> <IUPAC_NAME>
(2R,3R,4R,5R,6S)-2,3,4,5-tetrahydroxy-6-(hydroxymethyl)oxane-2-carboxamide

> <IUPAC_TRADITIONAL_NAME>
(2R,3R,4R,5R,6S)-2,3,4,5-tetrahydroxy-6-(hydroxymethyl)oxane-2-carboxamide

> <INCHI_IDENTIFIER>
InChI=1S/C7H13NO7/c8-6(13)7(14)5(12)4(11)3(10)2(1-9)15-7/h2-5,9-12,14H,1H2,(H2,8,13)/t2-,3-,4+,5+,7+/m0/s1

> <INCHI_KEY>
InChIKey=DTZYCNDAJQDPQC-QVVHOTIMSA-N

> <SMILES>
NC(=O)[C@]1(O)O[C@@H](CO)[C@H](O)[C@@H](O)[C@H]1O

> <JCHEM_ACCEPTOR_COUNT>
7

> <JCHEM_DONOR_COUNT>
6

> <JCHEM_ACIDIC_PKA>
9.14

> <JCHEM_BASIC_PKA>
-3

> <JCHEM_PHYSIOLOGICAL_CHARGE>
0

> <ALOGPS_LOGP>
-2.8

> <JCHEM_LOGP>
-3.7

> <ALOGPS_LOGS>
0.19

> <JCHEM_POLARIZABILITY>
19.31

> <JCHEM_POLAR_SURFACE_AREA>
153.47

> <JCHEM_REFRACTIVITY>
44.09

> <JCHEM_ROTATABLE_BOND_COUNT>
2

> <ALOGPS_SOLUBILITY>
3.43e+02 g/l __ 

$$$$
