
  Mrv0541 02231216212D          

 54 59  0  0  1  0            999 V2000
    0.7145   -2.0625    0.0000 C   0  0  0  0  0  0  0  0  0  0  0  0
    0.7145   -1.2375    0.0000 C   0  0  0  0  0  0  0  0  0  0  0  0
    1.4289   -0.8250    0.0000 C   0  0  0  0  0  0  0  0  0  0  0  0
    1.4289    0.0000    0.0000 C   0  0  0  0  0  0  0  0  0  0  0  0
    0.7145    0.4125    0.0000 C   0  0  0  0  0  0  0  0  0  0  0  0
    0.7145    1.2375    0.0000 N   0  0  0  0  0  0  0  0  0  0  0  0
    1.4289    1.6500    0.0000 C   0  0  0  0  0  0  0  0  0  0  0  0
    1.4289    2.4750    0.0000 C   0  0  0  0  0  0  0  0  0  0  0  0
    0.7145    2.8875    0.0000 O   0  0  0  0  0  0  0  0  0  0  0  0
    2.1434    2.8875    0.0000 N   0  0  0  0  0  0  0  0  0  0  0  0
    2.8579    2.4750    0.0000 C   0  0  0  0  0  0  0  0  0  0  0  0
    3.5724    2.8875    0.0000 O   0  0  0  0  0  0  0  0  0  0  0  0
    2.8579    1.6500    0.0000 N   0  0  0  0  0  0  0  0  0  0  0  0
    2.1434    1.2375    0.0000 C   0  0  0  0  0  0  0  0  0  0  0  0
    2.1434    0.4125    0.0000 N   0  0  0  0  0  0  0  0  0  0  0  0
    2.8579    0.0000    0.0000 C   0  0  0  0  0  0  0  0  0  0  0  0
    3.5724    0.4125    0.0000 C   0  0  1  0  0  0  0  0  0  0  0  0
    3.5724    1.2375    0.0000 O   0  0  0  0  0  0  0  0  0  0  0  0
    4.2868    0.0000    0.0000 C   0  0  1  0  0  0  0  0  0  0  0  0
    4.2868   -0.8250    0.0000 O   0  0  0  0  0  0  0  0  0  0  0  0
    5.0013    0.4125    0.0000 C   0  0  2  0  0  0  0  0  0  0  0  0
    5.0013    1.2375    0.0000 O   0  0  0  0  0  0  0  0  0  0  0  0
    5.7158    0.0000    0.0000 C   0  0  0  0  0  0  0  0  0  0  0  0
    6.4302    0.4125    0.0000 O   0  0  0  0  0  0  0  0  0  0  0  0
    7.1447    0.0000    0.0000 P   0  0  2  0  0  0  0  0  0  0  0  0
    7.5572    0.7145    0.0000 O   0  0  0  0  0  0  0  0  0  0  0  0
    6.7322   -0.7145    0.0000 O   0  0  0  0  0  0  0  0  0  0  0  0
    7.8592   -0.4125    0.0000 O   0  0  0  0  0  0  0  0  0  0  0  0
    8.5737    0.0000    0.0000 P   0  0  1  0  0  0  0  0  0  0  0  0
    8.1612    0.7145    0.0000 O   0  0  0  0  0  0  0  0  0  0  0  0
    8.9862   -0.7145    0.0000 O   0  0  0  0  0  0  0  0  0  0  0  0
    9.2881    0.4125    0.0000 O   0  0  0  0  0  0  0  0  0  0  0  0
   10.0026    0.0000    0.0000 C   0  0  0  0  0  0  0  0  0  0  0  0
   10.7171    0.4125    0.0000 C   0  0  2  0  0  0  0  0  0  0  0  0
   10.8033    1.2330    0.0000 O   0  0  0  0  0  0  0  0  0  0  0  0
   11.6103    1.4045    0.0000 C   0  0  2  0  0  0  0  0  0  0  0  0
   12.0228    0.6900    0.0000 C   0  0  2  0  0  0  0  0  0  0  0  0
   12.8433    0.6038    0.0000 O   0  0  0  0  0  0  0  0  0  0  0  0
   11.4707    0.0769    0.0000 C   0  0  1  0  0  0  0  0  0  0  0  0
   11.6423   -0.7300    0.0000 O   0  0  0  0  0  0  0  0  0  0  0  0
   11.9458    2.1582    0.0000 N   0  0  0  0  0  0  0  0  0  0  0  0
   12.7528    2.3297    0.0000 C   0  0  0  0  0  0  0  0  0  0  0  0
   12.8390    3.1502    0.0000 N   0  0  0  0  0  0  0  0  0  0  0  0
   12.0854    3.4857    0.0000 C   0  0  0  0  0  0  0  0  0  0  0  0
   11.5333    2.8727    0.0000 C   0  0  0  0  0  0  0  0  0  0  0  0
   10.7264    3.0442    0.0000 N   0  0  0  0  0  0  0  0  0  0  0  0
   10.4714    3.8288    0.0000 C   0  0  0  0  0  0  0  0  0  0  0  0
   11.0235    4.4419    0.0000 N   0  0  0  0  0  0  0  0  0  0  0  0
   11.8304    4.2704    0.0000 C   0  0  0  0  0  0  0  0  0  0  0  0
   12.3825    4.8835    0.0000 N   0  0  0  0  0  0  0  0  0  0  0  0
    0.0000    0.0000    0.0000 C   0  0  0  0  0  0  0  0  0  0  0  0
   -0.7145    0.4125    0.0000 O   0  0  0  0  0  0  0  0  0  0  0  0
    0.0000   -0.8250    0.0000 C   0  0  0  0  0  0  0  0  0  0  0  0
   -0.7145   -1.2375    0.0000 C   0  0  0  0  0  0  0  0  0  0  0  0
  1  2  1  0  0  0  0
  2  3  2  0  0  0  0
  3  4  1  0  0  0  0
  4  5  2  0  0  0  0
  5  6  1  0  0  0  0
  6  7  2  0  0  0  0
  7  8  1  0  0  0  0
  8  9  2  0  0  0  0
  8 10  1  0  0  0  0
 10 11  1  0  0  0  0
 11 12  2  0  0  0  0
 11 13  1  0  0  0  0
 13 14  2  0  0  0  0
  7 14  1  0  0  0  0
 14 15  1  0  0  0  0
  4 15  1  0  0  0  0
 15 16  1  0  0  0  0
 16 17  1  0  0  0  0
 17 18  1  1  0  0  0
 17 19  1  0  0  0  0
 19 20  1  6  0  0  0
 19 21  1  0  0  0  0
 21 22  1  6  0  0  0
 21 23  1  0  0  0  0
 23 24  1  0  0  0  0
 25 24  1  1  0  0  0
 25 26  1  6  0  0  0
 25 27  2  0  0  0  0
 25 28  1  0  0  0  0
 29 28  1  6  0  0  0
 29 30  1  1  0  0  0
 29 31  2  0  0  0  0
 29 32  1  0  0  0  0
 32 33  1  0  0  0  0
 34 33  1  6  0  0  0
 34 35  1  0  0  0  0
 35 36  1  0  0  0  0
 36 37  1  0  0  0  0
 37 38  1  6  0  0  0
 37 39  1  0  0  0  0
 34 39  1  0  0  0  0
 39 40  1  1  0  0  0
 36 41  1  1  0  0  0
 41 42  1  0  0  0  0
 42 43  2  0  0  0  0
 43 44  1  0  0  0  0
 44 45  2  0  0  0  0
 41 45  1  0  0  0  0
 45 46  1  0  0  0  0
 46 47  2  0  0  0  0
 47 48  1  0  0  0  0
 48 49  2  0  0  0  0
 44 49  1  0  0  0  0
 49 50  1  0  0  0  0
  5 51  1  0  0  0  0
 51 52  1  0  0  0  0
 51 53  2  0  0  0  0
  2 53  1  0  0  0  0
 53 54  1  0  0  0  0
M  END
> <DRUGBANK_ID>
DB02654

> <DRUG_GROUPS>
experimental

> <GENERIC_NAME>
6-Hydroxy-Flavin-Adenine Dinucleotide

> <CHEMICAL_FORMULA>
C27H33N9O16P2

> <MOLECULAR_WEIGHT>
801.5491

> <EXACT_MASS>
801.152049077

> <IUPAC_NAME>
[({[(2S,3R,4R,5R)-5-(6-amino-9H-purin-9-yl)-3,4-dihydroxyoxolan-2-yl]methoxy}(hydroxy)phosphoryl)oxy]({[(2R,3R,4R)-2,3,4-trihydroxy-5-{6-hydroxy-7,8-dimethyl-2,4-dioxo-2H,3H,4H,10H-benzo[g]pteridin-10-yl}pentyl]oxy})phosphinic acid

> <IUPAC_TRADITIONAL_NAME>
{[(2S,3R,4R,5R)-5-(6-aminopurin-9-yl)-3,4-dihydroxyoxolan-2-yl]methoxy(hydroxy)phosphoryl}oxy[(2R,3R,4R)-2,3,4-trihydroxy-5-{6-hydroxy-7,8-dimethyl-2,4-dioxo-3H-benzo[g]pteridin-10-yl}pentyl]oxyphosphinic acid

> <INCHI_IDENTIFIER>
InChI=1S/C27H33N9O16P2/c1-9-3-11-15(18(39)10(9)2)32-17-24(33-27(44)34-25(17)43)35(11)4-12(37)19(40)13(38)5-49-53(45,46)52-54(47,48)50-6-14-20(41)21(42)26(51-14)36-8-31-16-22(28)29-7-30-23(16)36/h3,7-8,12-14,19-21,26,37-42H,4-6H2,1-2H3,(H,45,46)(H,47,48)(H2,28,29,30)(H,34,43,44)/t12-,13-,14+,19-,20+,21-,26-/m1/s1

> <INCHI_KEY>
InChIKey=BJSUUWFQAMLNKU-OTUUNQSTSA-N

> <SMILES>
CC1=CC2=C(N=C3C(=O)NC(=O)N=C3N2C[C@@H](O)[C@@H](O)[C@H](O)CO[P@](O)(=O)O[P@@](O)(=O)OC[C@@H]2O[C@H]([C@H](O)[C@H]2O)N2C=NC3=C2N=CN=C3N)C(O)=C1C

> <JCHEM_ACCEPTOR_COUNT>
20

> <JCHEM_DONOR_COUNT>
10

> <JCHEM_ACIDIC_PKA>
1.86

> <JCHEM_BASIC_PKA>
4.99

> <JCHEM_PHYSIOLOGICAL_CHARGE>
-3

> <ALOGPS_LOGP>
-1

> <JCHEM_LOGP>
-5.6

> <ALOGPS_LOGS>
-2.2

> <JCHEM_POLARIZABILITY>
71.77

> <JCHEM_POLAR_SURFACE_AREA>
376.65

> <JCHEM_REFRACTIVITY>
179.41

> <JCHEM_ROTATABLE_BOND_COUNT>
13

> <ALOGPS_SOLUBILITY>
4.66e+00 g/l __ 

$$$$
