BTP
  Mrv0541 02231216352D          

 14 14  0  0  0  0            999 V2000
    1.3879    1.1685    0.0000 C   0  0  0  0  0  0  0  0  0  0  0  0
    1.3879    1.9935    0.0000 O   0  0  0  0  0  0  0  0  0  0  0  0
    2.1024    0.7560    0.0000 O   0  0  0  0  0  0  0  0  0  0  0  0
    0.6735    0.7560    0.0000 C   0  0  2  0  0  0  0  0  0  0  0  0
    0.6735   -0.0690    0.0000 C   0  0  0  0  0  0  0  0  0  0  0  0
   -0.0410   -0.4815    0.0000 C   0  0  0  0  0  0  0  0  0  0  0  0
   -0.0410   -1.3065    0.0000 C   0  0  0  0  0  0  0  0  0  0  0  0
   -0.7555   -1.7190    0.0000 C   0  0  0  0  0  0  0  0  0  0  0  0
   -1.4699   -1.3065    0.0000 C   0  0  0  0  0  0  0  0  0  0  0  0
   -1.4699   -0.4815    0.0000 C   0  0  0  0  0  0  0  0  0  0  0  0
   -0.7555   -0.0690    0.0000 C   0  0  0  0  0  0  0  0  0  0  0  0
   -0.0410    1.1685    0.0000 C   0  0  0  0  0  0  0  0  0  0  0  0
   -0.7555    0.7560    0.0000 S   0  0  0  0  0  0  0  0  0  0  0  0
    1.1792    0.4640    0.0000 H   0  0  0  0  0  0  0  0  0  0  0  0
  1  2  2  0  0  0  0
  1  3  1  0  0  0  0
  1  4  1  0  0  0  0
  4  5  1  0  0  0  0
  4 12  1  1  0  0  0
  4 14  1  1  0  0  0
  5  6  1  0  0  0  0
  6  7  2  0  0  0  0
  6 11  1  0  0  0  0
  7  8  1  0  0  0  0
  8  9  2  0  0  0  0
  9 10  1  0  0  0  0
 10 11  2  0  0  0  0
 12 13  1  0  0  0  0
M  END
> <DRUGBANK_ID>
DB02953

> <DRUG_GROUPS>
experimental

> <GENERIC_NAME>
2-Thiomethyl-3-Phenylpropanoic Acid

> <CHEMICAL_FORMULA>
C10H12O2S

> <MOLECULAR_WEIGHT>
196.266

> <EXACT_MASS>
196.055800318

> <IUPAC_NAME>
(2S)-2-benzyl-3-sulfanylpropanoic acid

> <IUPAC_TRADITIONAL_NAME>
(2S)-2-benzyl-3-sulfanylpropanoic acid

> <INCHI_IDENTIFIER>
InChI=1S/C10H12O2S/c11-10(12)9(7-13)6-8-4-2-1-3-5-8/h1-5,9,13H,6-7H2,(H,11,12)/t9-/m1/s1

> <INCHI_KEY>
InChIKey=ZUEBVBPVXLQMQR-SECBINFHSA-N

> <SMILES>
[H][C@](CS)(CC1=CC=CC=C1)C(O)=O

> <JCHEM_ACCEPTOR_COUNT>
2

> <JCHEM_DONOR_COUNT>
2

> <JCHEM_ACIDIC_PKA>
4.63

> <JCHEM_BASIC_PKA>
-9.6

> <JCHEM_PHYSIOLOGICAL_CHARGE>
-1

> <ALOGPS_LOGP>
2.39

> <JCHEM_LOGP>
2.57

> <ALOGPS_LOGS>
-2.9

> <JCHEM_POLARIZABILITY>
20.6

> <JCHEM_POLAR_SURFACE_AREA>
37.3

> <JCHEM_REFRACTIVITY>
54.34

> <JCHEM_ROTATABLE_BOND_COUNT>
4

> <ALOGPS_SOLUBILITY>
2.80e-01 g/l __ 

$$$$
