
  Mrv0541 02231216322D          

 19 20  0  0  1  0            999 V2000
    0.7145    6.7661    0.0000 N   0  0  0  0  0  0  0  0  0  0  0  0
    0.7145    5.9411    0.0000 C   0  0  0  0  0  0  0  0  0  0  0  0
    1.4289    5.5286    0.0000 N   0  0  0  0  0  0  0  0  0  0  0  0
    1.4289    4.7036    0.0000 C   0  0  0  0  0  0  0  0  0  0  0  0
    2.1434    4.2911    0.0000 O   0  0  0  0  0  0  0  0  0  0  0  0
    0.7145    4.2911    0.0000 N   0  0  0  0  0  0  0  0  0  0  0  0
    0.0000    4.7036    0.0000 C   0  0  0  0  0  0  0  0  0  0  0  0
    0.0000    5.5286    0.0000 C   0  0  0  0  0  0  0  0  0  0  0  0
    0.7145    3.4661    0.0000 C   0  0  1  0  0  0  0  0  0  0  0  0
    1.3819    2.9812    0.0000 C   0  0  0  0  0  0  0  0  0  0  0  0
    1.1270    2.1965    0.0000 C   0  0  0  0  0  0  0  0  0  0  0  0
    0.3020    2.1965    0.0000 C   0  0  1  0  0  0  0  0  0  0  0  0
   -0.1830    1.5291    0.0000 C   0  0  0  0  0  0  0  0  0  0  0  0
   -1.0034    1.6153    0.0000 O   0  0  0  0  0  0  0  0  0  0  0  0
   -1.4884    0.9479    0.0000 P   0  0  0  0  0  0  0  0  0  0  0  0
   -1.9733    0.2804    0.0000 O   0  0  0  0  0  0  0  0  0  0  0  0
   -2.1558    1.4328    0.0000 O   0  0  0  0  0  0  0  0  0  0  0  0
   -0.8209    0.4630    0.0000 O   0  0  0  0  0  0  0  0  0  0  0  0
    0.0470    2.9812    0.0000 O   0  0  0  0  0  0  0  0  0  0  0  0
  1  2  1  0  0  0  0
  2  3  2  0  0  0  0
  3  4  1  0  0  0  0
  4  5  2  0  0  0  0
  4  6  1  0  0  0  0
  6  7  1  0  0  0  0
  7  8  2  0  0  0  0
  2  8  1  0  0  0  0
  9  6  1  1  0  0  0
  9 10  1  0  0  0  0
 10 11  1  0  0  0  0
 11 12  1  0  0  0  0
 12 13  1  1  0  0  0
 13 14  1  0  0  0  0
 14 15  1  0  0  0  0
 15 16  1  0  0  0  0
 15 17  1  0  0  0  0
 15 18  2  0  0  0  0
 12 19  1  0  0  0  0
  9 19  1  0  0  0  0
M  END
> <DRUGBANK_ID>
DB02883

> <DRUG_GROUPS>
experimental

> <GENERIC_NAME>
2',3'-Dideoxycytidine-5'-Monophosphate

> <CHEMICAL_FORMULA>
C9H14N3O6P

> <MOLECULAR_WEIGHT>
291.1977

> <EXACT_MASS>
291.062021707

> <IUPAC_NAME>
{[(2S,5R)-5-(4-amino-2-oxo-1,2-dihydropyrimidin-1-yl)oxolan-2-yl]methoxy}phosphonic acid

> <IUPAC_TRADITIONAL_NAME>
[(2S,5R)-5-(4-amino-2-oxopyrimidin-1-yl)oxolan-2-yl]methoxyphosphonic acid

> <INCHI_IDENTIFIER>
InChI=1S/C9H14N3O6P/c10-7-3-4-12(9(13)11-7)8-2-1-6(18-8)5-17-19(14,15)16/h3-4,6,8H,1-2,5H2,(H2,10,11,13)(H2,14,15,16)/t6-,8+/m0/s1

> <INCHI_KEY>
InChIKey=RAJMXAZJKUGYGW-POYBYMJQSA-N

> <SMILES>
NC1=NC(=O)N(C=C1)[C@H]1CC[C@@H](COP(O)(O)=O)O1

> <JCHEM_ACCEPTOR_COUNT>
7

> <JCHEM_DONOR_COUNT>
3

> <JCHEM_ACIDIC_PKA>
1.34

> <JCHEM_BASIC_PKA>
0.011

> <JCHEM_PHYSIOLOGICAL_CHARGE>
-2

> <ALOGPS_LOGP>
-1.7

> <JCHEM_LOGP>
-2

> <ALOGPS_LOGS>
-1.4

> <JCHEM_POLARIZABILITY>
25.25

> <JCHEM_POLAR_SURFACE_AREA>
134.68

> <JCHEM_REFRACTIVITY>
63.11

> <JCHEM_ROTATABLE_BOND_COUNT>
4

> <ALOGPS_SOLUBILITY>
1.12e+01 g/l __ 

$$$$
