
  Mrv0541 02231216132D          

 12 11  0  0  1  0            999 V2000
    4.6184    2.6664    0.0000 N   0  0  0  0  0  0  0  0  0  0  0  0
    4.6184    1.8414    0.0000 C   0  0  1  0  0  0  0  0  0  0  0  0
    3.9039    1.4289    0.0000 C   0  0  0  0  0  0  0  0  0  0  0  0
    3.1895    1.8414    0.0000 S   0  0  0  0  0  0  0  0  0  0  0  0
    2.4750    1.4289    0.0000 C   0  0  0  0  0  0  0  0  0  0  0  0
    1.7605    1.8414    0.0000 P   0  0  0  0  0  0  0  0  0  0  0  0
    1.0461    2.2539    0.0000 O   0  0  0  0  0  0  0  0  0  0  0  0
    1.3480    1.1270    0.0000 O   0  0  0  0  0  0  0  0  0  0  0  0
    2.1730    2.5559    0.0000 O   0  0  0  0  0  0  0  0  0  0  0  0
    5.3329    1.4289    0.0000 C   0  0  0  0  0  0  0  0  0  0  0  0
    6.0474    1.8414    0.0000 O   0  0  0  0  0  0  0  0  0  0  0  0
    5.3329    0.6039    0.0000 O   0  0  0  0  0  0  0  0  0  0  0  0
  2  1  1  6  0  0  0
  2  3  1  0  0  0  0
  3  4  1  0  0  0  0
  4  5  1  0  0  0  0
  5  6  1  0  0  0  0
  6  7  1  0  0  0  0
  6  8  1  0  0  0  0
  6  9  2  0  0  0  0
  2 10  1  0  0  0  0
 10 11  1  0  0  0  0
 10 12  2  0  0  0  0
M  END
> <DRUGBANK_ID>
DB02461

> <DRUG_GROUPS>
experimental

> <GENERIC_NAME>
S-Methyl Phosphocysteine

> <CHEMICAL_FORMULA>
C4H10NO5PS

> <MOLECULAR_WEIGHT>
215.165

> <EXACT_MASS>
215.001729637

> <IUPAC_NAME>
(2R)-2-amino-3-[(phosphonomethyl)sulfanyl]propanoic acid

> <IUPAC_TRADITIONAL_NAME>
S-methyl phosphocysteine

> <INCHI_IDENTIFIER>
InChI=1S/C4H10NO5PS/c5-3(4(6)7)1-12-2-11(8,9)10/h3H,1-2,5H2,(H,6,7)(H2,8,9,10)/t3-/m0/s1

> <INCHI_KEY>
InChIKey=IIALWEPLPCANHU-VKHMYHEASA-N

> <SMILES>
N[C@@H](CSCP(O)(O)=O)C(O)=O

> <JCHEM_ACCEPTOR_COUNT>
6

> <JCHEM_DONOR_COUNT>
4

> <JCHEM_ACIDIC_PKA>
1.49

> <JCHEM_BASIC_PKA>
9.2

> <JCHEM_PHYSIOLOGICAL_CHARGE>
-1

> <ALOGPS_LOGP>
-2.3

> <JCHEM_LOGP>
-3.2

> <ALOGPS_LOGS>
-0.89

> <JCHEM_POLARIZABILITY>
18.23

> <JCHEM_POLAR_SURFACE_AREA>
120.85

> <JCHEM_REFRACTIVITY>
43.35

> <JCHEM_ROTATABLE_BOND_COUNT>
5

> <ALOGPS_SOLUBILITY>
2.76e+01 g/l __ 

$$$$
