
  Mrv0541 02231216332D          

 20 20  0  0  0  0            999 V2000
    6.4302    2.0625    0.0000 C   0  0  0  0  0  0  0  0  0  0  0  0
    6.4302    1.2375    0.0000 C   0  0  0  0  0  0  0  0  0  0  0  0
    7.1447    0.8250    0.0000 C   0  0  0  0  0  0  0  0  0  0  0  0
    7.8592    1.2375    0.0000 C   0  0  0  0  0  0  0  0  0  0  0  0
    5.7158    0.8250    0.0000 C   0  0  0  0  0  0  0  0  0  0  0  0
    5.0013    1.2375    0.0000 C   0  0  0  0  0  0  0  0  0  0  0  0
    4.2868    0.8250    0.0000 C   0  0  0  0  0  0  0  0  0  0  0  0
    3.5724    1.2375    0.0000 C   0  0  0  0  0  0  0  0  0  0  0  0
    3.5724    2.0625    0.0000 C   0  0  0  0  0  0  0  0  0  0  0  0
    2.8579    0.8250    0.0000 C   0  0  0  0  0  0  0  0  0  0  0  0
    2.1434    1.2375    0.0000 C   0  0  0  0  0  0  0  0  0  0  0  0
    1.4289    0.8250    0.0000 C   0  0  0  0  0  0  0  0  0  0  0  0
    1.4289    0.0000    0.0000 C   0  0  0  0  0  0  0  0  0  0  0  0
    2.1434   -0.4125    0.0000 C   0  0  0  0  0  0  0  0  0  0  0  0
    0.7145   -0.4125    0.0000 C   0  0  0  0  0  0  0  0  0  0  0  0
    0.0000    0.0000    0.0000 C   0  0  0  0  0  0  0  0  0  0  0  0
    0.0000    0.8250    0.0000 C   0  0  0  0  0  0  0  0  0  0  0  0
    0.7145    1.2375    0.0000 C   0  0  0  0  0  0  0  0  0  0  0  0
    0.3272    1.9659    0.0000 C   0  0  0  0  0  0  0  0  0  0  0  0
    1.1018    1.9659    0.0000 C   0  0  0  0  0  0  0  0  0  0  0  0
  1  2  1  0  0  0  0
  2  3  1  0  0  0  0
  3  4  2  0  0  0  0
  2  5  2  0  0  0  0
  5  6  1  0  0  0  0
  6  7  2  0  0  0  0
  7  8  1  0  0  0  0
  8  9  1  0  0  0  0
  8 10  2  0  0  0  0
 10 11  1  0  0  0  0
 11 12  2  0  0  0  0
 12 13  1  0  0  0  0
 13 14  1  0  0  0  0
 13 15  2  0  0  0  0
 15 16  1  0  0  0  0
 16 17  1  0  0  0  0
 17 18  1  0  0  0  0
 12 18  1  0  0  0  0
 18 19  1  0  0  0  0
 18 20  1  0  0  0  0
M  END
> <DRUGBANK_ID>
DB02914

> <DRUG_GROUPS>
experimental

> <GENERIC_NAME>
(6e)-6-[(2e,4e,6e)-3,7-Dimethylnona-2,4,6,8-Tetraenylidene]-1,5,5-Trimethylcyclohexene

> <CHEMICAL_FORMULA>
C20H28

> <MOLECULAR_WEIGHT>
268.4363

> <EXACT_MASS>
268.219100896

> <IUPAC_NAME>
(6Z)-6-[(2E,4E,6E)-3,7-dimethylnona-2,4,6,8-tetraen-1-ylidene]-1,5,5-trimethylcyclohex-1-ene

> <IUPAC_TRADITIONAL_NAME>
(6Z)-6-[(2E,4E,6E)-3,7-dimethylnona-2,4,6,8-tetraen-1-ylidene]-1,5,5-trimethylcyclohex-1-ene

> <INCHI_IDENTIFIER>
InChI=1S/C20H28/c1-7-16(2)10-8-11-17(3)13-14-19-18(4)12-9-15-20(19,5)6/h7-8,10-14H,1,9,15H2,2-6H3/b11-8+,16-10+,17-13+,19-14+

> <INCHI_KEY>
InChIKey=FWNRILWHNGFAIN-SSHGZYQJSA-N

> <SMILES>
C\C(C=C)=C/C=C/C(/C)=C/C=C1\C(C)=CCCC1(C)C

> <JCHEM_ACCEPTOR_COUNT>
0

> <JCHEM_DONOR_COUNT>
0

> <JCHEM_PHYSIOLOGICAL_CHARGE>
0

> <ALOGPS_LOGP>
6.81

> <JCHEM_LOGP>
5.67

> <ALOGPS_LOGS>
-5.1

> <JCHEM_POLARIZABILITY>
34.41

> <JCHEM_POLAR_SURFACE_AREA>
0

> <JCHEM_REFRACTIVITY>
96.19

> <JCHEM_ROTATABLE_BOND_COUNT>
4

> <ALOGPS_SOLUBILITY>
2.23e-03 g/l __ 

$$$$
