
  Mrv0541 02231216272D          

 42 41  0  0  1  0            999 V2000
   13.4211    8.5737    0.0000 C   0  0  0  0  0  0  0  0  0  0  0  0
   14.1355    8.9862    0.0000 C   0  0  0  0  0  0  0  0  0  0  0  0
   14.8500    8.5737    0.0000 C   0  0  0  0  0  0  0  0  0  0  0  0
   15.5645    8.9862    0.0000 C   0  0  0  0  0  0  0  0  0  0  0  0
   16.2789    8.5737    0.0000 C   0  0  0  0  0  0  0  0  0  0  0  0
   16.9934    8.9862    0.0000 C   0  0  0  0  0  0  0  0  0  0  0  0
   17.7079    8.5737    0.0000 C   0  0  0  0  0  0  0  0  0  0  0  0
   18.4224    8.9862    0.0000 C   0  0  0  0  0  0  0  0  0  0  0  0
   19.1368    8.5737    0.0000 C   0  0  0  0  0  0  0  0  0  0  0  0
   19.8513    8.9862    0.0000 C   0  0  0  0  0  0  0  0  0  0  0  0
   20.5658    8.5737    0.0000 C   0  0  0  0  0  0  0  0  0  0  0  0
   21.2802    8.9862    0.0000 C   0  0  0  0  0  0  0  0  0  0  0  0
   21.2802    9.8112    0.0000 O   0  0  0  0  0  0  0  0  0  0  0  0
   21.9947    8.5737    0.0000 O   0  0  0  0  0  0  0  0  0  0  0  0
   22.7092    8.9862    0.0000 C   0  0  0  0  0  0  0  0  0  0  0  0
   23.4237    8.5737    0.0000 C   0  0  1  0  0  0  0  0  0  0  0  0
   23.4237    7.7487    0.0000 C   0  0  0  0  0  0  0  0  0  0  0  0
   22.7092    7.3362    0.0000 O   0  0  0  0  0  0  0  0  0  0  0  0
   22.7092    6.5112    0.0000 P   0  0  1  0  0  0  0  0  0  0  0  0
   23.5342    6.5112    0.0000 O   0  0  0  0  0  0  0  0  0  0  0  0
   21.8842    6.5112    0.0000 O   0  0  0  0  0  0  0  0  0  0  0  0
   22.7092    5.6862    0.0000 O   0  0  0  0  0  0  0  0  0  0  0  0
   21.9947    5.2737    0.0000 C   0  0  0  0  0  0  0  0  0  0  0  0
   21.9947    4.4487    0.0000 C   0  0  0  0  0  0  0  0  0  0  0  0
   21.2802    4.0362    0.0000 N   0  3  0  0  0  0  0  0  0  0  0  0
   20.8677    4.7506    0.0000 C   0  0  0  0  0  0  0  0  0  0  0  0
   21.6927    3.3217    0.0000 C   0  0  0  0  0  0  0  0  0  0  0  0
   20.5658    3.6237    0.0000 C   0  0  0  0  0  0  0  0  0  0  0  0
   24.1381    8.9862    0.0000 O   0  0  0  0  0  0  0  0  0  0  0  0
   24.8526    8.5737    0.0000 C   0  0  0  0  0  0  0  0  0  0  0  0
   24.8526    7.7487    0.0000 O   0  0  0  0  0  0  0  0  0  0  0  0
   25.5671    8.9862    0.0000 C   0  0  0  0  0  0  0  0  0  0  0  0
   26.2815    8.5737    0.0000 C   0  0  0  0  0  0  0  0  0  0  0  0
   26.9960    8.9862    0.0000 C   0  0  0  0  0  0  0  0  0  0  0  0
   27.7105    8.5737    0.0000 C   0  0  0  0  0  0  0  0  0  0  0  0
   28.4249    8.9862    0.0000 C   0  0  0  0  0  0  0  0  0  0  0  0
   29.1394    8.5737    0.0000 C   0  0  0  0  0  0  0  0  0  0  0  0
   29.8539    8.9862    0.0000 C   0  0  0  0  0  0  0  0  0  0  0  0
   30.5684    8.5737    0.0000 C   0  0  0  0  0  0  0  0  0  0  0  0
   31.2828    8.9862    0.0000 C   0  0  0  0  0  0  0  0  0  0  0  0
   31.9973    8.5737    0.0000 C   0  0  0  0  0  0  0  0  0  0  0  0
   32.7118    8.9862    0.0000 C   0  0  0  0  0  0  0  0  0  0  0  0
  1  2  1  0  0  0  0
  2  3  1  0  0  0  0
  3  4  1  0  0  0  0
  4  5  1  0  0  0  0
  5  6  1  0  0  0  0
  6  7  1  0  0  0  0
  7  8  1  0  0  0  0
  8  9  1  0  0  0  0
  9 10  1  0  0  0  0
 10 11  1  0  0  0  0
 11 12  1  0  0  0  0
 12 13  2  0  0  0  0
 12 14  1  0  0  0  0
 14 15  1  0  0  0  0
 15 16  1  0  0  0  0
 16 17  1  0  0  0  0
 17 18  1  0  0  0  0
 19 18  1  6  0  0  0
 19 20  1  1  0  0  0
 19 21  2  0  0  0  0
 19 22  1  0  0  0  0
 22 23  1  0  0  0  0
 23 24  1  0  0  0  0
 24 25  1  0  0  0  0
 25 26  1  0  0  0  0
 25 27  1  0  0  0  0
 25 28  1  0  0  0  0
 16 29  1  6  0  0  0
 29 30  1  0  0  0  0
 30 31  2  0  0  0  0
 30 32  1  0  0  0  0
 32 33  1  0  0  0  0
 33 34  1  0  0  0  0
 34 35  1  0  0  0  0
 35 36  1  0  0  0  0
 36 37  1  0  0  0  0
 37 38  1  0  0  0  0
 38 39  1  0  0  0  0
 39 40  1  0  0  0  0
 40 41  1  0  0  0  0
 41 42  1  0  0  0  0
M  END
> <DRUGBANK_ID>
DB02777

> <DRUG_GROUPS>
experimental

> <GENERIC_NAME>
Diundecyl Phosphatidyl Choline

> <CHEMICAL_FORMULA>
C32H65NO8P

> <MOLECULAR_WEIGHT>
622.8342

> <EXACT_MASS>
622.444779573

> <IUPAC_NAME>
[(2S)-2,3-bis(dodecanoyloxy)propoxy][2-(trimethylazaniumyl)ethoxy]phosphinic acid

> <IUPAC_TRADITIONAL_NAME>
(2S)-2,3-bis(dodecanoyloxy)propoxy(2-(trimethylaminio)ethoxy)phosphinic acid

> <INCHI_IDENTIFIER>
InChI=1S/C32H64NO8P/c1-6-8-10-12-14-16-18-20-22-24-31(34)38-28-30(29-40-42(36,37)39-27-26-33(3,4)5)41-32(35)25-23-21-19-17-15-13-11-9-7-2/h30H,6-29H2,1-5H3/p+1/t30-/m0/s1

> <INCHI_KEY>
InChIKey=IJFVSSZAOYLHEE-PMERELPUSA-O

> <SMILES>
CCCCCCCCCCCC(=O)OC[C@@H](CO[P@@](O)(=O)OCC[N+](C)(C)C)OC(=O)CCCCCCCCCCC

> <JCHEM_ACCEPTOR_COUNT>
4

> <JCHEM_DONOR_COUNT>
1

> <JCHEM_ACIDIC_PKA>
1.86

> <JCHEM_BASIC_PKA>
-6.7

> <JCHEM_PHYSIOLOGICAL_CHARGE>
0

> <ALOGPS_LOGP>
3.4

> <JCHEM_LOGP>
4.56

> <ALOGPS_LOGS>
-6.8

> <JCHEM_POLARIZABILITY>
74.27

> <JCHEM_POLAR_SURFACE_AREA>
108.36

> <JCHEM_REFRACTIVITY>
180.18

> <JCHEM_ROTATABLE_BOND_COUNT>
32

> <ALOGPS_SOLUBILITY>
9.31e-05 g/l __ 

$$$$
