
  Mrv0541 02231216152D          

 11 11  0  0  0  0            999 V2000
    2.1434    2.0625    0.0000 C   0  0  0  0  0  0  0  0  0  0  0  0
    2.1434    1.2375    0.0000 C   0  0  0  0  0  0  0  0  0  0  0  0
    2.8579    0.8250    0.0000 C   0  0  0  0  0  0  0  0  0  0  0  0
    1.4289    0.8250    0.0000 C   0  0  0  0  0  0  0  0  0  0  0  0
    1.4289    0.0000    0.0000 C   0  0  0  0  0  0  0  0  0  0  0  0
    0.7145   -0.4125    0.0000 C   0  0  0  0  0  0  0  0  0  0  0  0
    0.0000    0.0000    0.0000 C   0  0  0  0  0  0  0  0  0  0  0  0
   -0.7145   -0.4125    0.0000 C   0  0  0  0  0  0  0  0  0  0  0  0
    0.0000    0.8250    0.0000 C   0  0  0  0  0  0  0  0  0  0  0  0
    0.7145    1.2375    0.0000 C   0  0  0  0  0  0  0  0  0  0  0  0
    0.7145    2.0625    0.0000 O   0  0  0  0  0  0  0  0  0  0  0  0
  1  2  1  0  0  0  0
  2  3  1  0  0  0  0
  2  4  1  0  0  0  0
  4  5  2  0  0  0  0
  5  6  1  0  0  0  0
  6  7  2  0  0  0  0
  7  8  1  0  0  0  0
  7  9  1  0  0  0  0
  9 10  2  0  0  0  0
  4 10  1  0  0  0  0
 10 11  1  0  0  0  0
M  END
> <DRUGBANK_ID>
DB02513

> <DRUG_GROUPS>
experimental

> <GENERIC_NAME>
5-Methyl-2-(1-Methylethyl)Phenol

> <CHEMICAL_FORMULA>
C10H14O

> <MOLECULAR_WEIGHT>
150.2176

> <EXACT_MASS>
150.10446507

> <IUPAC_NAME>
5-methyl-2-(propan-2-yl)phenol

> <IUPAC_TRADITIONAL_NAME>
thymol

> <INCHI_IDENTIFIER>
InChI=1S/C10H14O/c1-7(2)9-5-4-8(3)6-10(9)11/h4-7,11H,1-3H3

> <INCHI_KEY>
InChIKey=MGSRCZKZVOBKFT-UHFFFAOYSA-N

> <SMILES>
CC(C)C1=CC=C(C)C=C1O

> <JCHEM_ACCEPTOR_COUNT>
1

> <JCHEM_DONOR_COUNT>
1

> <JCHEM_ACIDIC_PKA>
10.59

> <JCHEM_BASIC_PKA>
-5.2

> <JCHEM_PHYSIOLOGICAL_CHARGE>
0

> <ALOGPS_LOGP>
3.16

> <JCHEM_LOGP>
3.43

> <ALOGPS_LOGS>
-2.4

> <JCHEM_POLARIZABILITY>
17.84

> <JCHEM_POLAR_SURFACE_AREA>
20.23

> <JCHEM_REFRACTIVITY>
47.27

> <JCHEM_ROTATABLE_BOND_COUNT>
1

> <ALOGPS_SOLUBILITY>
6.43e-01 g/l __ 

$$$$
