
  Mrv0541 02231216062D          

  6  5  0  0  0  0            999 V2000
    2.4750   -1.4289    0.0000 C   0  0  0  0  0  0  0  0  0  0  0  0
    2.0625   -0.7145    0.0000 C   0  0  0  0  0  0  0  0  0  0  0  0
    2.4750    0.0000    0.0000 C   0  0  0  0  0  0  0  0  0  0  0  0
    1.2375   -0.7145    0.0000 C   0  0  0  0  0  0  0  0  0  0  0  0
    0.8250    0.0000    0.0000 C   0  0  0  0  0  0  0  0  0  0  0  0
    0.0000    0.0000    0.0000 O   0  0  0  0  0  0  0  0  0  0  0  0
  1  2  1  0  0  0  0
  2  3  1  0  0  0  0
  2  4  1  0  0  0  0
  4  5  1  0  0  0  0
  5  6  1  0  0  0  0
M  END
> <DRUGBANK_ID>
DB02296

> <DRUG_GROUPS>
experimental

> <GENERIC_NAME>
1-Hydroxy-3-Methylbutane

> <CHEMICAL_FORMULA>
C5H12O

> <MOLECULAR_WEIGHT>
88.1482

> <EXACT_MASS>
88.088815006

> <IUPAC_NAME>
3-methylbutan-1-ol

> <IUPAC_TRADITIONAL_NAME>
1-hydroxy-3-methylbutane

> <INCHI_IDENTIFIER>
InChI=1S/C5H12O/c1-5(2)3-4-6/h5-6H,3-4H2,1-2H3

> <INCHI_KEY>
InChIKey=PHTQWCKDNZKARW-UHFFFAOYSA-N

> <SMILES>
CC(C)CCO

> <JCHEM_ACCEPTOR_COUNT>
1

> <JCHEM_DONOR_COUNT>
1

> <JCHEM_ACIDIC_PKA>
17.17

> <JCHEM_BASIC_PKA>
-1.9

> <JCHEM_PHYSIOLOGICAL_CHARGE>
0

> <ALOGPS_LOGP>
1.33

> <JCHEM_LOGP>
1.09

> <ALOGPS_LOGS>
-0.37

> <JCHEM_POLARIZABILITY>
11.03

> <JCHEM_POLAR_SURFACE_AREA>
20.23

> <JCHEM_REFRACTIVITY>
26.68

> <JCHEM_ROTATABLE_BOND_COUNT>
2

> <ALOGPS_SOLUBILITY>
3.80e+01 g/l __ 

$$$$
