
  Mrv0541 02231216212D          

 16 16  0  0  1  0            999 V2000
    2.1434    1.2375    0.0000 N   0  0  0  0  0  0  0  0  0  0  0  0
    1.4289    0.8250    0.0000 C   0  0  1  0  0  0  0  0  0  0  0  0
    1.4289    0.0000    0.0000 C   0  0  2  0  0  0  0  0  0  0  0  0
    2.1434   -0.4125    0.0000 O   0  0  0  0  0  0  0  0  0  0  0  0
    0.7145   -0.4125    0.0000 O   0  0  0  0  0  0  0  0  0  0  0  0
    0.0000    0.0000    0.0000 C   0  0  2  0  0  0  0  0  0  0  0  0
   -0.7145   -0.4125    0.0000 C   0  0  0  0  0  0  0  0  0  0  0  0
   -1.4289    0.0000    0.0000 O   0  0  0  0  0  0  0  0  0  0  0  0
   -2.1434   -0.4125    0.0000 P   0  0  0  0  0  0  0  0  0  0  0  0
   -2.8579   -0.8250    0.0000 O   0  0  0  0  0  0  0  0  0  0  0  0
   -2.5559    0.3020    0.0000 O   0  0  0  0  0  0  0  0  0  0  0  0
   -1.7309   -1.1270    0.0000 O   0  0  0  0  0  0  0  0  0  0  0  0
    0.0000    0.8250    0.0000 C   0  0  2  0  0  0  0  0  0  0  0  0
   -0.7145    1.2375    0.0000 O   0  0  0  0  0  0  0  0  0  0  0  0
    0.7145    1.2375    0.0000 C   0  0  2  0  0  0  0  0  0  0  0  0
    0.7145    2.0625    0.0000 O   0  0  0  0  0  0  0  0  0  0  0  0
  2  1  1  1  0  0  0
  2  3  1  0  0  0  0
  3  4  1  6  0  0  0
  3  5  1  0  0  0  0
  5  6  1  0  0  0  0
  6  7  1  6  0  0  0
  7  8  1  0  0  0  0
  8  9  1  0  0  0  0
  9 10  1  0  0  0  0
  9 11  1  0  0  0  0
  9 12  2  0  0  0  0
  6 13  1  0  0  0  0
 13 14  1  6  0  0  0
 13 15  1  0  0  0  0
  2 15  1  0  0  0  0
 15 16  1  6  0  0  0
M  END
> <DRUGBANK_ID>
DB02657

> <DRUG_GROUPS>
experimental

> <GENERIC_NAME>
Glucosamine 6-Phosphate

> <CHEMICAL_FORMULA>
C6H14NO8P

> <MOLECULAR_WEIGHT>
259.151

> <EXACT_MASS>
259.045702941

> <IUPAC_NAME>
{[(2R,3R,4R,5R,6R)-5-amino-3,4,6-trihydroxyoxan-2-yl]methoxy}phosphonic acid

> <IUPAC_TRADITIONAL_NAME>
[(2R,3R,4R,5R,6R)-5-amino-3,4,6-trihydroxyoxan-2-yl]methoxyphosphonic acid

> <INCHI_IDENTIFIER>
InChI=1S/C6H14NO8P/c7-3-5(9)4(8)2(15-6(3)10)1-14-16(11,12)13/h2-6,8-10H,1,7H2,(H2,11,12,13)/t2-,3-,4+,5-,6-/m1/s1

> <INCHI_KEY>
InChIKey=XHMJOUIAFHJHBW-VFUOTHLCSA-N

> <SMILES>
N[C@H]1[C@H](O)O[C@H](COP(O)(O)=O)[C@H](O)[C@@H]1O

> <JCHEM_ACCEPTOR_COUNT>
8

> <JCHEM_DONOR_COUNT>
6

> <JCHEM_ACIDIC_PKA>
1.22

> <JCHEM_BASIC_PKA>
8.23

> <JCHEM_PHYSIOLOGICAL_CHARGE>
-1

> <ALOGPS_LOGP>
-2.6

> <JCHEM_LOGP>
-4.2

> <ALOGPS_LOGS>
-0.87

> <JCHEM_POLARIZABILITY>
21.53

> <JCHEM_POLAR_SURFACE_AREA>
162.7

> <JCHEM_REFRACTIVITY>
48.45

> <JCHEM_ROTATABLE_BOND_COUNT>
3

> <ALOGPS_SOLUBILITY>
3.48e+01 g/l __ 

$$$$
