
  Mrv0541 02231216102D          

 24 26  0  0  0  0            999 V2000
   -5.7158   -1.6500    0.0000 C    0  0  0  0  0  0  0  0  0  0  0  0
   -5.0013   -1.2375    0.0000 N    0  3  0  0  0  0  0  0  0  0  0  0
   -5.0013   -0.4125    0.0000 C    0  0  0  0  0  0  0  0  0  0  0  0
   -4.2868   -1.6500    0.0000 C    0  0  0  0  0  0  0  0  0  0  0  0
   -3.5724   -1.2375    0.0000 C    0  0  0  0  0  0  0  0  0  0  0  0
   -2.8579   -1.6500    0.0000 N    0  0  0  0  0  0  0  0  0  0  0  0
   -2.1434   -1.2375    0.0000 C    0  0  0  0  0  0  0  0  0  0  0  0
   -2.1434   -0.4125    0.0000 O    0  0  0  0  0  0  0  0  0  0  0  0
   -1.4289   -1.6500    0.0000 C    0  0  0  0  0  0  0  0  0  0  0  0
   -1.4289   -2.4750    0.0000 C    0  0  0  0  0  0  0  0  0  0  0  0
   -0.7145   -2.8875    0.0000 C    0  0  0  0  0  0  0  0  0  0  0  0
    0.0000   -2.4750    0.0000 C    0  0  0  0  0  0  0  0  0  0  0  0
    0.0000   -1.6500    0.0000 C    0  0  0  0  0  0  0  0  0  0  0  0
    0.7145   -1.2375    0.0000 C    0  0  0  0  0  0  0  0  0  0  0  0
    1.4289   -1.6500    0.0000 N    0  0  0  0  0  0  0  0  0  0  0  0
    0.7145   -0.4125    0.0000 C    0  0  0  0  0  0  0  0  0  0  0  0
    0.0000    0.0000    0.0000 C    0  0  0  0  0  0  0  0  0  0  0  0
   -0.7145   -0.4125    0.0000 N    0  3  0  0  0  0  0  0  0  0  0  0
   -0.7145   -1.2375    0.0000 C    0  0  0  0  0  0  0  0  0  0  0  0
    0.0000    0.8250    0.0000 C    0  0  0  0  0  0  0  0  0  0  0  0
   -0.7145    1.2375    0.0000 Br   0  0  0  0  0  0  0  0  0  0  0  0
    0.7145    1.2375    0.0000 C    0  0  0  0  0  0  0  0  0  0  0  0
    1.4289    0.8250    0.0000 C    0  0  0  0  0  0  0  0  0  0  0  0
    1.4289    0.0000    0.0000 C    0  0  0  0  0  0  0  0  0  0  0  0
  1  2  1  0  0  0  0
  2  3  1  0  0  0  0
  2  4  1  0  0  0  0
  4  5  1  0  0  0  0
  5  6  1  0  0  0  0
  6  7  1  0  0  0  0
  7  8  2  0  0  0  0
  7  9  1  0  0  0  0
  9 10  2  0  0  0  0
 10 11  1  0  0  0  0
 11 12  2  0  0  0  0
 12 13  1  0  0  0  0
 13 14  2  0  0  0  0
 14 15  1  0  0  0  0
 14 16  1  0  0  0  0
 16 17  2  0  0  0  0
 17 18  1  0  0  0  0
 18 19  2  0  0  0  0
  9 19  1  0  0  0  0
 13 19  1  0  0  0  0
 17 20  1  0  0  0  0
 20 21  1  0  0  0  0
 20 22  2  0  0  0  0
 22 23  1  0  0  0  0
 23 24  2  0  0  0  0
 16 24  1  0  0  0  0
M  END
> <DRUGBANK_ID>
DB02390

> <DRUG_GROUPS>
experimental

> <GENERIC_NAME>
5-Bromo-N[2-(Dimethylamino)Ethyl]-9-Aminoacridine-4-Carboxamide

> <CHEMICAL_FORMULA>
C18H21BrN4O

> <MOLECULAR_WEIGHT>
389.29

> <EXACT_MASS>
388.089873961

> <IUPAC_NAME>
9-amino-4-bromo-5-{[2-(dimethylazaniumyl)ethyl]carbamoyl}acridin-10-ium

> <IUPAC_TRADITIONAL_NAME>
9-amino-4-bromo-5-{[2-(dimethylaminio)ethyl]carbamoyl}acridin-10-ium

> <INCHI_IDENTIFIER>
InChI=1S/C18H19BrN4O/c1-23(2)10-9-21-18(24)13-7-3-5-11-15(20)12-6-4-8-14(19)17(12)22-16(11)13/h3-8H,9-10H2,1-2H3,(H2,20,22)(H,21,24)/p+2

> <INCHI_KEY>
InChIKey=NROQPXQSDDINMC-UHFFFAOYSA-P

> <SMILES>
C[NH+](C)CCNC(=O)C1=CC=CC2=C(N)C3=C([NH+]=C12)C(Br)=CC=C3

> <JCHEM_ACCEPTOR_COUNT>
2

> <JCHEM_DONOR_COUNT>
4

> <JCHEM_ACIDIC_PKA>
14.71

> <JCHEM_BASIC_PKA>
8.52

> <JCHEM_PHYSIOLOGICAL_CHARGE>
2

> <ALOGPS_LOGP>
-1.1

> <JCHEM_LOGP>
2.54

> <ALOGPS_LOGS>
-7.1

> <JCHEM_POLARIZABILITY>
38.74

> <JCHEM_POLAR_SURFACE_AREA>
73.7

> <JCHEM_REFRACTIVITY>
113.15

> <JCHEM_ROTATABLE_BOND_COUNT>
4

> <ALOGPS_SOLUBILITY>
3.82e-05 g/l __ 

$$$$
