
  Mrv0541 02231216072D          

 12 12  0  0  1  0            999 V2000
    2.1434    2.0625    0.0000 O   0  0  0  0  0  0  0  0  0  0  0  0
    2.1434    1.2375    0.0000 C   0  0  0  0  0  0  0  0  0  0  0  0
    1.4289    0.8250    0.0000 C   0  0  1  0  0  0  0  0  0  0  0  0
    1.4289    0.0000    0.0000 O   0  0  0  0  0  0  0  0  0  0  0  0
    0.7145   -0.4125    0.0000 C   0  0  1  0  0  0  0  0  0  0  0  0
    0.7145   -1.2375    0.0000 F   0  0  0  0  0  0  0  0  0  0  0  0
    0.0000    0.0000    0.0000 C   0  0  2  0  0  0  0  0  0  0  0  0
   -0.7145   -0.4125    0.0000 F   0  0  0  0  0  0  0  0  0  0  0  0
    0.0000    0.8250    0.0000 C   0  0  1  0  0  0  0  0  0  0  0  0
   -0.7145    1.2375    0.0000 O   0  0  0  0  0  0  0  0  0  0  0  0
    0.7145    1.2375    0.0000 C   0  0  2  0  0  0  0  0  0  0  0  0
    0.7145    2.0625    0.0000 O   0  0  0  0  0  0  0  0  0  0  0  0
  1  2  1  0  0  0  0
  3  2  1  1  0  0  0
  3  4  1  0  0  0  0
  4  5  1  0  0  0  0
  5  6  1  1  0  0  0
  5  7  1  0  0  0  0
  7  8  1  6  0  0  0
  7  9  1  0  0  0  0
  9 10  1  1  0  0  0
  9 11  1  0  0  0  0
  3 11  1  0  0  0  0
 11 12  1  6  0  0  0
M  END
> <DRUGBANK_ID>
DB02318

> <DRUG_GROUPS>
experimental

> <GENERIC_NAME>
2-Deoxy-2-Fluoro-Alpha-D-Mannosyl Fluoride

> <CHEMICAL_FORMULA>
C6H10F2O4

> <MOLECULAR_WEIGHT>
184.138

> <EXACT_MASS>
184.054715218

> <IUPAC_NAME>
(2R,3S,4S,5R,6S)-5,6-difluoro-2-(hydroxymethyl)oxane-3,4-diol

> <IUPAC_TRADITIONAL_NAME>
(2R,3S,4S,5R,6S)-5,6-difluoro-2-(hydroxymethyl)oxane-3,4-diol

> <INCHI_IDENTIFIER>
InChI=1S/C6H10F2O4/c7-3-5(11)4(10)2(1-9)12-6(3)8/h2-6,9-11H,1H2/t2-,3-,4-,5-,6-/m1/s1

> <INCHI_KEY>
InChIKey=YZRDPODBASCWCK-QZABAPFNSA-N

> <SMILES>
OC[C@H]1O[C@@H](F)[C@H](F)[C@@H](O)[C@@H]1O

> <JCHEM_ACCEPTOR_COUNT>
4

> <JCHEM_DONOR_COUNT>
3

> <JCHEM_ACIDIC_PKA>
12.52

> <JCHEM_BASIC_PKA>
-3

> <JCHEM_PHYSIOLOGICAL_CHARGE>
0

> <ALOGPS_LOGP>
-0.97

> <JCHEM_LOGP>
-1.3

> <ALOGPS_LOGS>
-0.16

> <JCHEM_POLARIZABILITY>
14.74

> <JCHEM_POLAR_SURFACE_AREA>
69.92

> <JCHEM_REFRACTIVITY>
32.85

> <JCHEM_ROTATABLE_BOND_COUNT>
1

> <ALOGPS_SOLUBILITY>
1.29e+02 g/l __ 

$$$$
