
  Mrv0541 02231216022D          

 45 52  0  0  1  0            999 V2000
    0.8839   -0.8150    0.0000 C    0  0  0  0  0  0  0  0  0  0  0  0
    1.5815   -0.3746    0.0000 C    0  0  0  0  0  0  0  0  0  0  0  0
    1.6353    0.4486    0.0000 C    0  0  0  0  0  0  0  0  0  0  0  0
    1.0008    0.9760    0.0000 C    0  0  0  0  0  0  0  0  0  0  0  0
    0.2269    0.6903    0.0000 C    0  0  0  0  0  0  0  0  0  0  0  0
   -0.4075    1.2176    0.0000 C    0  0  0  0  0  0  0  0  0  0  0  0
   -1.1815    0.9319    0.0000 O    0  0  0  0  0  0  0  0  0  0  0  0
   -0.2680    2.0308    0.0000 O    0  0  0  0  0  0  0  0  0  0  0  0
    2.4348    0.6519    0.0000 C    0  0  0  0  0  0  0  0  0  0  0  0
    2.9554    1.5893    0.0000 C    0  0  0  0  0  0  0  0  0  0  0  0
    3.6697    2.0020    0.0000 C    0  0  0  0  0  0  0  0  0  0  0  0
    4.3042    1.4746    0.0000 N    0  3  0  0  0  0  0  0  0  0  0  0
    5.0018    1.9151    0.0000 C    0  0  0  0  0  0  0  0  0  0  0  0
    5.9392    1.3945    0.0000 C    0  0  0  0  0  0  0  0  0  0  0  0
    6.3519    0.6802    0.0000 C    0  0  0  0  0  0  0  0  0  0  0  0
    7.1183    0.3746    0.0000 C    0  0  0  0  0  0  0  0  0  0  0  0
    7.8159    0.8150    0.0000 C    0  0  0  0  0  0  0  0  0  0  0  0
    7.7833    1.6394    0.0000 C    0  0  0  0  0  0  0  0  0  0  0  0
    7.0645   -0.4486    0.0000 C    0  0  0  0  0  0  0  0  0  0  0  0
    7.6989   -0.9760    0.0000 C    0  0  0  0  0  0  0  0  0  0  0  0
    7.5594   -1.7891    0.0000 C    0  0  0  0  0  0  0  0  0  0  0  0
    6.2649   -0.6519    0.0000 C    0  0  0  0  0  0  0  0  0  0  0  0
    5.7444   -1.5893    0.0000 C    0  0  0  0  0  0  0  0  0  0  0  0
    5.0300   -2.0020    0.0000 C    0  0  0  0  0  0  0  0  0  0  0  0
    4.7245   -2.7684    0.0000 C    0  0  0  0  0  0  0  0  0  0  0  0
    5.1649   -3.4660    0.0000 C    0  0  0  0  0  0  0  0  0  0  0  0
    4.7810   -4.1962    0.0000 C    0  0  0  0  0  0  0  0  0  0  0  0
    3.9013   -2.7146    0.0000 C    0  0  0  0  0  0  0  0  0  0  0  0
    3.3739   -3.3490    0.0000 C    0  0  0  0  0  0  0  0  0  0  0  0
    2.5608   -3.2095    0.0000 C    0  0  0  0  0  0  0  0  0  0  0  0
    3.6980   -1.9151    0.0000 C    0  0  0  0  0  0  0  0  0  0  0  0
    4.3956   -1.4746    0.0000 N    0  3  0  0  0  0  0  0  0  0  0  0
    4.3499    0.0000    0.0000 Fe   0  0  1  0  0  0  0  0  0  0  0  0
    2.8752   -0.0457    0.0000 N    0  0  0  0  0  0  0  0  0  0  0  0
    2.3479   -0.6802    0.0000 C    0  0  0  0  0  0  0  0  0  0  0  0
    2.7605   -1.3945    0.0000 C    0  0  0  0  0  0  0  0  0  0  0  0
    5.8245    0.0457    0.0000 N    0  0  0  0  0  0  0  0  0  0  0  0
    4.7985    2.7146    0.0000 C    0  0  0  0  0  0  0  0  0  0  0  0
    5.3259    3.3490    0.0000 C    0  0  0  0  0  0  0  0  0  0  0  0
    3.9753    2.7684    0.0000 C    0  0  0  0  0  0  0  0  0  0  0  0
    3.5348    3.4660    0.0000 C    0  0  0  0  0  0  0  0  0  0  0  0
    2.7105    3.4334    0.0000 C    0  0  0  0  0  0  0  0  0  0  0  0
    2.3265    2.7032    0.0000 C    0  0  0  0  0  0  0  0  0  0  0  0
    2.7669    2.0056    0.0000 O    0  0  0  0  0  0  0  0  0  0  0  0
    1.5022    2.6706    0.0000 O    0  0  0  0  0  0  0  0  0  0  0  0
  1  2  1  0  0  0  0
  2  3  2  0  0  0  0
  3  4  1  0  0  0  0
  4  5  1  0  0  0  0
  5  6  1  0  0  0  0
  6  7  1  0  0  0  0
  6  8  2  0  0  0  0
  3  9  1  0  0  0  0
  9 10  2  0  0  0  0
 10 11  1  0  0  0  0
 11 12  2  0  0  0  0
 12 13  1  0  0  0  0
 13 14  2  0  0  0  0
 14 15  1  0  0  0  0
 15 16  2  0  0  0  0
 16 17  1  0  0  0  0
 17 18  2  0  0  0  0
 16 19  1  0  0  0  0
 19 20  1  0  0  0  0
 20 21  2  0  0  0  0
 19 22  2  0  0  0  0
 22 23  1  0  0  0  0
 23 24  2  0  0  0  0
 24 25  1  0  0  0  0
 25 26  1  0  0  0  0
 26 27  2  0  0  0  0
 25 28  2  0  0  0  0
 28 29  1  0  0  0  0
 29 30  2  0  0  0  0
 28 31  1  0  0  0  0
 31 32  2  0  0  0  0
 24 32  1  0  0  0  0
 33 32  1  1  0  0  0
 12 33  1  0  0  0  0
 33 34  1  0  0  0  0
  9 34  1  0  0  0  0
 34 35  1  0  0  0  0
  2 35  1  0  0  0  0
 35 36  2  0  0  0  0
 31 36  1  0  0  0  0
 33 37  1  0  0  0  0
 15 37  1  0  0  0  0
 22 37  1  0  0  0  0
 13 38  1  0  0  0  0
 38 39  1  0  0  0  0
 38 40  2  0  0  0  0
 11 40  1  0  0  0  0
 40 41  1  0  0  0  0
 41 42  1  0  0  0  0
 42 43  1  0  0  0  0
 43 44  1  0  0  0  0
 43 45  2  0  0  0  0
M  END
> <DRUGBANK_ID>
DB02199

> <DRUG_GROUPS>
experimental

> <GENERIC_NAME>
1,3-Dedimethyl-1,3-Divinyl Heme

> <CHEMICAL_FORMULA>
C36H32FeN4O4

> <MOLECULAR_WEIGHT>
640.509

> <EXACT_MASS>
640.177297665

> <IUPAC_NAME>
(1S)-15,19-bis(2-carboxyethyl)-4,5,9,10-tetraethenyl-14,20-dimethyl-2$l^{5},22,23$l^{5},25-tetraaza-1-ferraoctacyclo[11.9.1.1^{1,8}.1^{3,21}.0^{2,6}.0^{16,23}.0^{18,22}.0^{11,25}]pentacosa-2,4,6,8,10,12,14,16(23),17,19,21(24)-undecaene-2,23-bis(ylium)

> <IUPAC_TRADITIONAL_NAME>
(1S)-15,19-bis(2-carboxyethyl)-4,5,9,10-tetraethenyl-14,20-dimethyl-2$l^{5},22,23$l^{5},25-tetraaza-1-ferraoctacyclo[11.9.1.1^{1,8}.1^{3,21}.0^{2,6}.0^{16,23}.0^{18,22}.0^{11,25}]pentacosa-2,4,6,8,10,12,14,16(23),17,19,21(24)-undecaene-2,23-bis(ylium)

> <INCHI_IDENTIFIER>
InChI=1S/C36H34N4O4.Fe/c1-7-21-23(9-3)31-17-32-24(10-4)22(8-2)30(40-32)16-28-20(6)26(12-14-36(43)44)34(38-28)18-33-25(11-13-35(41)42)19(5)27(37-33)15-29(21)39-31;/h7-10,15-18H,1-4,11-14H2,5-6H3,(H4,37,38,39,40,41,42,43,44);/q;+4/p-2/b27-15-,28-16-,29-15-,30-16-,31-17-,32-17-,33-18-,34-18-;

> <INCHI_KEY>
InChIKey=NIZBIZUKCKYQSQ-ZSQORRHCSA-L

> <SMILES>
CC1=C(CCC(O)=O)C2=CC3=[N+]4C(=CC5=C(C=C)C(C=C)=C6C=C7C(C=C)=C(C=C)C8=[N+]7[Fe@]4(N2C1=C8)N56)C(C)=C3CCC(O)=O

> <JCHEM_ACCEPTOR_COUNT>
4

> <JCHEM_DONOR_COUNT>
2

> <JCHEM_ACIDIC_PKA>
3.26

> <JCHEM_PHYSIOLOGICAL_CHARGE>
0

> <ALOGPS_LOGP>
0.34

> <JCHEM_LOGP>
3.05

> <ALOGPS_LOGS>
-5.8

> <JCHEM_POLARIZABILITY>
72.31

> <JCHEM_POLAR_SURFACE_AREA>
92.22

> <JCHEM_REFRACTIVITY>
179.06

> <JCHEM_ROTATABLE_BOND_COUNT>
10

> <ALOGPS_SOLUBILITY>
1.09e-03 g/l __ 

$$$$
