
  Mrv0541 02231216032D          

 31 33  0  0  1  0            999 V2000
    9.9002    0.1544    0.0000 C   0  0  0  0  0  0  0  0  0  0  0  0
   10.6147   -0.2581    0.0000 S   0  0  0  0  0  0  0  0  0  0  0  0
   11.3292    0.1544    0.0000 C   0  0  0  0  0  0  0  0  0  0  0  0
   12.0436   -0.2581    0.0000 C   0  0  0  0  0  0  0  0  0  0  0  0
   12.7581    0.1544    0.0000 C   0  0  1  0  0  0  0  0  0  0  0  0
   12.7581    0.9794    0.0000 N   0  0  0  0  0  0  0  0  0  0  0  0
   13.4726   -0.2581    0.0000 C   0  0  0  0  0  0  0  0  0  0  0  0
   13.4726   -1.0831    0.0000 O   0  0  0  0  0  0  0  0  0  0  0  0
   14.1871    0.1544    0.0000 N   0  0  0  0  0  0  0  0  0  0  0  0
   14.9015   -0.2581    0.0000 S   0  0  0  0  0  0  0  0  0  0  0  0
   14.4890   -0.9726    0.0000 O   0  0  0  0  0  0  0  0  0  0  0  0
   15.3140    0.4563    0.0000 O   0  0  0  0  0  0  0  0  0  0  0  0
   15.6160   -0.6706    0.0000 O   0  0  0  0  0  0  0  0  0  0  0  0
   16.3305   -0.2581    0.0000 C   0  0  0  0  0  0  0  0  0  0  0  0
   17.0449   -0.6706    0.0000 C   0  0  2  0  0  0  0  0  0  0  0  0
   17.7986   -0.3351    0.0000 O   0  0  0  0  0  0  0  0  0  0  0  0
   18.3507   -0.9482    0.0000 C   0  0  2  0  0  0  0  0  0  0  0  0
   17.9382   -1.6626    0.0000 C   0  0  2  0  0  0  0  0  0  0  0  0
   18.2737   -2.4163    0.0000 O   0  0  0  0  0  0  0  0  0  0  0  0
   17.1312   -1.4911    0.0000 C   0  0  1  0  0  0  0  0  0  0  0  0
   16.5181   -2.0431    0.0000 O   0  0  0  0  0  0  0  0  0  0  0  0
   19.1711   -0.8619    0.0000 N   0  0  0  0  0  0  0  0  0  0  0  0
   19.5836   -0.1475    0.0000 C   0  0  0  0  0  0  0  0  0  0  0  0
   20.3906   -0.3190    0.0000 N   0  0  0  0  0  0  0  0  0  0  0  0
   20.4768   -1.1395    0.0000 C   0  0  0  0  0  0  0  0  0  0  0  0
   21.1443   -1.6244    0.0000 C   0  0  0  0  0  0  0  0  0  0  0  0
   21.8980   -1.2888    0.0000 N   0  0  0  0  0  0  0  0  0  0  0  0
   21.0580   -2.4449    0.0000 N   0  0  0  0  0  0  0  0  0  0  0  0
   20.3044   -2.7804    0.0000 C   0  0  0  0  0  0  0  0  0  0  0  0
   19.6369   -2.2955    0.0000 N   0  0  0  0  0  0  0  0  0  0  0  0
   19.7232   -1.4750    0.0000 C   0  0  1  0  0  0  0  0  0  0  0  0
  1  2  1  0  0  0  0
  2  3  1  0  0  0  0
  3  4  1  0  0  0  0
  4  5  1  0  0  0  0
  5  6  1  1  0  0  0
  5  7  1  0  0  0  0
  7  8  2  0  0  0  0
  7  9  1  0  0  0  0
  9 10  1  0  0  0  0
 10 11  2  0  0  0  0
 10 12  2  0  0  0  0
 10 13  1  0  0  0  0
 13 14  1  0  0  0  0
 15 14  1  6  0  0  0
 15 16  1  0  0  0  0
 16 17  1  0  0  0  0
 17 18  1  0  0  0  0
 18 19  1  6  0  0  0
 18 20  1  0  0  0  0
 15 20  1  0  0  0  0
 20 21  1  1  0  0  0
 17 22  1  1  0  0  0
 22 23  1  0  0  0  0
 23 24  2  0  0  0  0
 24 25  1  0  0  0  0
 25 26  2  0  0  0  0
 26 27  1  0  0  0  0
 26 28  1  0  0  0  0
 28 29  1  0  0  0  0
 29 30  2  0  0  0  0
 30 31  1  0  0  0  0
 31 22  1  1  0  0  0
 25 31  1  0  0  0  0
M  END
> <DRUGBANK_ID>
DB02229

> <DRUG_GROUPS>
experimental

> <GENERIC_NAME>
5'-O-[(L-Methionyl)-Sulphamoyl]Adenosine

> <CHEMICAL_FORMULA>
C15H25N7O7S2

> <MOLECULAR_WEIGHT>
479.532

> <EXACT_MASS>
479.125687569

> <IUPAC_NAME>
(2R)-2-amino-1-[({[(2S,3R,4R,5R)-5-[(4S)-6-amino-4,9-dihydro-1H-purin-9-yl]-3,4-dihydroxyoxolan-2-yl]methoxy}sulfonyl)amino]-2-[2-(methylsulfanyl)ethyl]ethan-1-one

> <IUPAC_TRADITIONAL_NAME>
(2R)-2-amino-1-({[(2S,3R,4R,5R)-5-[(4S)-6-amino-1,4-dihydropurin-9-yl]-3,4-dihydroxyoxolan-2-yl]methoxysulfonyl}amino)-2-[2-(methylsulfanyl)ethyl]ethanone

> <INCHI_IDENTIFIER>
InChI=1S/C15H25N7O7S2/c1-30-3-2-7(16)14(25)21-31(26,27)28-4-8-10(23)11(24)15(29-8)22-6-20-9-12(17)18-5-19-13(9)22/h5-8,10-11,13,15,23-24H,2-4,16-17H2,1H3,(H,18,19)(H,21,25)/t7-,8+,10+,11-,13+,15-/m1/s1

> <INCHI_KEY>
InChIKey=SQDXXTAOGLOMRP-JJWYTCDVSA-N

> <SMILES>
CSCC[C@@H](N)C(=O)NS(=O)(=O)OC[C@@H]1O[C@H]([C@H](O)[C@H]1O)N1C=NC2=C(N)NC=N[C@@H]12

> <JCHEM_ACCEPTOR_COUNT>
13

> <JCHEM_DONOR_COUNT>
6

> <JCHEM_ACIDIC_PKA>
2.78

> <JCHEM_BASIC_PKA>
6.79

> <JCHEM_PHYSIOLOGICAL_CHARGE>
-1

> <ALOGPS_LOGP>
-1.6

> <JCHEM_LOGP>
-4.4

> <ALOGPS_LOGS>
-2

> <JCHEM_POLARIZABILITY>
45.87

> <JCHEM_POLAR_SURFACE_AREA>
214.19

> <JCHEM_REFRACTIVITY>
118.9

> <JCHEM_ROTATABLE_BOND_COUNT>
8

> <ALOGPS_SOLUBILITY>
4.92e+00 g/l __ 

$$$$
