
  Mrv0541 02231216362D          

 87 97  0  0  1  0            999 V2000
   10.7427    3.2869    0.0000 C   0  0  0  0  0  0  0  0  0  0  0  0
    9.9786    2.9758    0.0000 N   0  0  0  0  0  0  0  0  0  0  0  0
    9.8660    2.1585    0.0000 C   0  0  0  0  0  0  0  0  0  0  0  0
    9.1019    1.8474    0.0000 O   0  0  0  0  0  0  0  0  0  0  0  0
   10.5175    1.6524    0.0000 C   0  0  0  0  0  0  0  0  0  0  0  0
   10.4049    0.8351    0.0000 C   0  0  2  0  0  0  0  0  0  0  0  0
   11.1957    0.6001    0.0000 N   0  0  0  0  0  0  0  0  0  0  0  0
   11.9175    0.2005    0.0000 C   0  0  0  0  0  0  0  0  0  0  0  0
   12.3927    0.8749    0.0000 O   0  0  0  0  0  0  0  0  0  0  0  0
   12.5365   -0.3449    0.0000 C   0  0  0  0  0  0  0  0  0  0  0  0
   13.3435   -0.1733    0.0000 C   0  0  0  0  0  0  0  0  0  0  0  0
   13.7560   -0.8878    0.0000 S   0  0  0  0  0  0  0  0  0  0  0  0
   13.2039   -1.5009    0.0000 C   0  0  0  0  0  0  0  0  0  0  0  0
   12.4503   -1.1653    0.0000 N   0  0  0  0  0  0  0  0  0  0  0  0
   13.5194   -2.5742    0.0000 C   0  0  0  0  0  0  0  0  0  0  0  0
   14.2412   -2.1747    0.0000 C   0  0  0  0  0  0  0  0  0  0  0  0
   14.9481   -2.6000    0.0000 C   0  0  0  0  0  0  0  0  0  0  0  0
   14.9332   -3.4249    0.0000 C   0  0  0  0  0  0  0  0  0  0  0  0
   14.2114   -3.8244    0.0000 N   0  0  0  0  0  0  0  0  0  0  0  0
   13.5045   -3.3991    0.0000 C   0  0  0  0  0  0  0  0  0  0  0  0
   13.3126   -4.2015    0.0000 C   0  0  0  0  0  0  0  0  0  0  0  0
   13.8422   -4.8341    0.0000 C   0  0  0  0  0  0  0  0  0  0  0  0
   13.4041   -5.5332    0.0000 S   0  0  0  0  0  0  0  0  0  0  0  0
   12.6039   -5.3326    0.0000 C   0  0  0  0  0  0  0  0  0  0  0  0
   12.5473   -4.5096    0.0000 N   0  0  0  0  0  0  0  0  0  0  0  0
   11.8034   -6.1141    0.0000 C   0  0  0  0  0  0  0  0  0  0  0  0
   11.8421   -6.9382    0.0000 C   0  0  0  0  0  0  0  0  0  0  0  0
   11.0703   -7.2297    0.0000 S   0  0  0  0  0  0  0  0  0  0  0  0
   10.5546   -6.5857    0.0000 C   0  0  0  0  0  0  0  0  0  0  0  0
   11.0077   -5.8963    0.0000 N   0  0  0  0  0  0  0  0  0  0  0  0
    9.4444   -6.7234    0.0000 C   0  0  1  0  0  0  0  0  0  0  0  0
    8.6328   -6.5752    0.0000 N   0  0  0  0  0  0  0  0  0  0  0  0
    7.8720   -6.2561    0.0000 C   0  0  0  0  0  0  0  0  0  0  0  0
    7.4725   -6.9779    0.0000 O   0  0  0  0  0  0  0  0  0  0  0  0
    7.1976   -5.7808    0.0000 C   0  0  0  0  0  0  0  0  0  0  0  0
    6.6412   -5.1717    0.0000 N   0  0  0  0  0  0  0  0  0  0  0  0
    6.2287   -4.4573    0.0000 C   0  0  0  0  0  0  0  0  0  0  0  0
    5.4738   -4.7901    0.0000 O   0  0  0  0  0  0  0  0  0  0  0  0
    5.9795   -3.6708    0.0000 C   0  0  0  0  0  0  0  0  0  0  0  0
    5.1996   -3.4017    0.0000 C   0  0  0  0  0  0  0  0  0  0  0  0
    4.5235   -3.8745    0.0000 C   0  0  0  0  0  0  0  0  0  0  0  0
    3.7760   -3.5254    0.0000 O   0  0  0  0  0  0  0  0  0  0  0  0
    3.0999   -3.9982    0.0000 C   0  0  0  0  0  0  0  0  0  0  0  0
    5.2145   -2.5769    0.0000 S   0  0  0  0  0  0  0  0  0  0  0  0
    6.0036   -2.3362    0.0000 C   0  0  0  0  0  0  0  0  0  0  0  0
    6.4764   -3.0122    0.0000 N   0  0  0  0  0  0  0  0  0  0  0  0
    6.2866   -1.2538    0.0000 C   0  0  1  0  0  0  0  0  0  0  0  0
    6.7247   -0.5547    0.0000 N   0  0  0  0  0  0  0  0  0  0  0  0
    7.3027    0.0339    0.0000 C   0  0  0  0  0  0  0  0  0  0  0  0
    6.7801    0.6722    0.0000 O   0  0  0  0  0  0  0  0  0  0  0  0
    7.9938    0.4844    0.0000 C   0  0  0  0  0  0  0  0  0  0  0  0
    8.0445    1.3079    0.0000 C   0  0  0  0  0  0  0  0  0  0  0  0
    7.4080    1.8328    0.0000 C   0  0  0  0  0  0  0  0  0  0  0  0
    8.8432    1.5142    0.0000 S   0  0  0  0  0  0  0  0  0  0  0  0
    9.2863    0.8183    0.0000 C   0  0  0  0  0  0  0  0  0  0  0  0
    8.7613    0.1818    0.0000 N   0  0  0  0  0  0  0  0  0  0  0  0
    5.5293   -0.9267    0.0000 C   0  0  0  0  0  0  0  0  0  0  0  0
    5.4339   -0.1072    0.0000 C   0  0  0  0  0  0  0  0  0  0  0  0
    4.8673   -1.4190    0.0000 C   0  0  0  0  0  0  0  0  0  0  0  0
    9.4208   -7.5481    0.0000 C   0  0  1  0  0  0  0  0  0  0  0  0
    8.6948   -7.9400    0.0000 O   0  0  0  0  0  0  0  0  0  0  0  0
   10.1232   -7.9808    0.0000 C   0  0  0  0  0  0  0  0  0  0  0  0
   10.8491   -7.5889    0.0000 C   0  0  0  0  0  0  0  0  0  0  0  0
   11.5515   -8.0217    0.0000 C   0  0  0  0  0  0  0  0  0  0  0  0
   11.5279   -8.8463    0.0000 C   0  0  0  0  0  0  0  0  0  0  0  0
   10.8020   -9.2382    0.0000 C   0  0  0  0  0  0  0  0  0  0  0  0
   10.0996   -8.8055    0.0000 C   0  0  0  0  0  0  0  0  0  0  0  0
   15.6401   -3.8503    0.0000 C   0  0  0  0  0  0  0  0  0  0  0  0
   16.3997   -3.5284    0.0000 N   0  0  0  0  0  0  0  0  0  0  0  0
   16.9406   -4.1513    0.0000 C   0  0  0  0  0  0  0  0  0  0  0  0
   16.5153   -4.8582    0.0000 C   0  0  0  0  0  0  0  0  0  0  0  0
   15.7115   -4.6722    0.0000 S   0  0  0  0  0  0  0  0  0  0  0  0
   17.7625   -4.0799    0.0000 C   0  0  0  0  0  0  0  0  0  0  0  0
   18.1879   -3.3730    0.0000 N   0  0  0  0  0  0  0  0  0  0  0  0
   18.9916   -3.5591    0.0000 C   0  0  2  0  0  0  0  0  0  0  0  0
   19.0630   -4.3810    0.0000 C   0  0  0  0  0  0  0  0  0  0  0  0
   18.3034   -4.7029    0.0000 O   0  0  0  0  0  0  0  0  0  0  0  0
   19.6146   -3.0183    0.0000 C   0  0  0  0  0  0  0  0  0  0  0  0
   20.3945   -3.2873    0.0000 O   0  0  0  0  0  0  0  0  0  0  0  0
   19.4577   -2.2083    0.0000 N   0  0  0  0  0  0  0  0  0  0  0  0
   18.7102   -1.8592    0.0000 C   0  0  0  0  0  0  0  0  0  0  0  0
   18.8112   -1.0404    0.0000 C   0  0  0  0  0  0  0  0  0  0  0  0
   19.6212   -0.8835    0.0000 C   0  0  0  0  0  0  0  0  0  0  0  0
   20.0207   -1.6053    0.0000 C   0  0  2  0  0  0  0  0  0  0  0  0
   20.8395   -1.7064    0.0000 C   0  0  0  0  0  0  0  0  0  0  0  0
   21.3364   -1.0478    0.0000 N   0  0  0  0  0  0  0  0  0  0  0  0
   21.1613   -2.4660    0.0000 O   0  0  0  0  0  0  0  0  0  0  0  0
  1  2  1  0  0  0  0
  2  3  1  0  0  0  0
  3  4  2  0  0  0  0
  3  5  1  0  0  0  0
  6  5  1  6  0  0  0
  6  7  1  0  0  0  0
  7  8  1  0  0  0  0
  8  9  2  0  0  0  0
  8 10  1  0  0  0  0
 10 11  2  0  0  0  0
 11 12  1  0  0  0  0
 12 13  1  0  0  0  0
 13 14  2  0  0  0  0
 10 14  1  0  0  0  0
 13 15  1  0  0  0  0
 15 16  2  0  0  0  0
 16 17  1  0  0  0  0
 17 18  2  0  0  0  0
 18 19  1  0  0  0  0
 19 20  2  0  0  0  0
 15 20  1  0  0  0  0
 20 21  1  0  0  0  0
 21 22  2  0  0  0  0
 22 23  1  0  0  0  0
 23 24  1  0  0  0  0
 24 25  2  0  0  0  0
 21 25  1  0  0  0  0
 24 26  1  0  0  0  0
 26 27  2  0  0  0  0
 27 28  1  0  0  0  0
 28 29  1  0  0  0  0
 29 30  2  0  0  0  0
 26 30  1  0  0  0  0
 29 31  1  0  0  0  0
 31 32  1  0  0  0  0
 32 33  1  0  0  0  0
 33 34  2  0  0  0  0
 33 35  1  0  0  0  0
 35 36  1  0  0  0  0
 36 37  1  0  0  0  0
 37 38  2  0  0  0  0
 37 39  1  0  0  0  0
 39 40  2  0  0  0  0
 40 41  1  0  0  0  0
 41 42  1  0  0  0  0
 42 43  1  0  0  0  0
 40 44  1  0  0  0  0
 44 45  1  0  0  0  0
 45 46  2  0  0  0  0
 39 46  1  0  0  0  0
 45 47  1  0  0  0  0
 47 48  1  0  0  0  0
 48 49  1  0  0  0  0
 49 50  2  0  0  0  0
 49 51  1  0  0  0  0
 51 52  2  0  0  0  0
 52 53  1  0  0  0  0
 52 54  1  0  0  0  0
 54 55  1  0  0  0  0
  6 55  1  0  0  0  0
 55 56  2  0  0  0  0
 51 56  1  0  0  0  0
 47 57  1  6  0  0  0
 57 58  1  0  0  0  0
 57 59  1  0  0  0  0
 31 60  1  6  0  0  0
 60 61  1  6  0  0  0
 60 62  1  0  0  0  0
 62 63  2  0  0  0  0
 63 64  1  0  0  0  0
 64 65  2  0  0  0  0
 65 66  1  0  0  0  0
 66 67  2  0  0  0  0
 62 67  1  0  0  0  0
 18 68  1  0  0  0  0
 68 69  2  0  0  0  0
 69 70  1  0  0  0  0
 70 71  2  0  0  0  0
 71 72  1  0  0  0  0
 68 72  1  0  0  0  0
 70 73  1  0  0  0  0
 73 74  2  0  0  0  0
 74 75  1  0  0  0  0
 75 76  1  0  0  0  0
 76 77  1  0  0  0  0
 73 77  1  0  0  0  0
 75 78  1  1  0  0  0
 78 79  2  0  0  0  0
 78 80  1  0  0  0  0
 80 81  1  0  0  0  0
 81 82  1  0  0  0  0
 82 83  1  0  0  0  0
 83 84  1  0  0  0  0
 80 84  1  0  0  0  0
 84 85  1  6  0  0  0
 85 86  1  0  0  0  0
 85 87  2  0  0  0  0
M  END
> <DRUGBANK_ID>
DB02975

> <DRUG_GROUPS>
experimental

> <GENERIC_NAME>
Ge2270a

> <CHEMICAL_FORMULA>
C56H55N15O10S6

> <MOLECULAR_WEIGHT>
1290.52

> <EXACT_MASS>
1289.258057195

> <IUPAC_NAME>
(2R)-1-{[(4R)-2-{2-[(18S,25S,35S)-35-[(S)-hydroxy(phenyl)methyl]-28-(methoxymethyl)-21-methyl-18-[(methylcarbamoyl)methyl]-16,23,30,33-tetraoxo-25-(propan-2-yl)-3,13,20,27,37-pentathia-7,17,24,31,34,39,40,41,42,43-decaazaheptacyclo[34.2.1.1^{2,5}.1^{12,15}.1^{19,22}.1^{26,29}.0^{6,11}]tritetraconta-1(38),2(43),4,6,8,10,12(42),14,19(41),21,26(40),28,36(39)-tridecaen-8-yl]-1,3-thiazol-4-yl}-4,5-dihydro-1,3-oxazol-4-yl]carbonyl}pyrrolidine-2-carboxamide

> <IUPAC_TRADITIONAL_NAME>
(2R)-1-{[(4R)-2-{2-[(18S,25S,35S)-35-[(S)-hydroxy(phenyl)methyl]-25-isopropyl-28-(methoxymethyl)-21-methyl-18-[(methylcarbamoyl)methyl]-16,23,30,33-tetraoxo-3,13,20,27,37-pentathia-7,17,24,31,34,39,40,41,42,43-decaazaheptacyclo[34.2.1.1^{2,5}.1^{12,15}.1^{19,22}.1^{26,29}.0^{6,11}]tritetraconta-1(38),2(43),4,6,8,10,12(42),14,19(41),21,26(40),28,36(39)-tridecaen-8-yl]-1,3-thiazol-4-yl}-4,5-dihydro-1,3-oxazol-4-yl]carbonyl}pyrrolidine-2-carboxamide

> <INCHI_IDENTIFIER>
InChI=1S/C56H55N15O10S6/c1-24(2)39-55-70-42(36(87-55)19-80-5)47(77)59-17-38(73)67-43(44(74)26-10-7-6-8-11-26)54-66-34(23-85-54)52-63-31(20-83-52)41-27(50-64-32(21-82-50)46(76)61-29(16-37(72)58-4)53-69-40(25(3)86-53)48(78)68-39)13-14-28(60-41)51-65-33(22-84-51)49-62-30(18-81-49)56(79)71-15-9-12-35(71)45(57)75/h6-8,10-11,13-14,20-24,29-30,35,39,43-44,74H,9,12,15-19H2,1-5H3,(H2,57,75)(H,58,72)(H,59,77)(H,61,76)(H,67,73)(H,68,78)/t29-,30+,35+,39-,43-,44-/m0/s1

> <INCHI_KEY>
InChIKey=JMDULECOHIXMNX-RGTZWTTFSA-N

> <SMILES>
CNC(=O)C[C@@H]1NC(=O)C2=CSC(=N2)C2=CC=C(N=C2C2=CSC(=N2)C2=CSC(=N2)[C@@H](NC(=O)CNC(=O)C2=C(COC)SC(=N2)[C@@H](NC(=O)C2=C(C)SC1=N2)C(C)C)[C@@H](O)C1=CC=CC=C1)C1=NC(=CS1)C1=N[C@H](CO1)C(=O)N1CCC[C@@H]1C(N)=O

> <JCHEM_ACCEPTOR_COUNT>
17

> <JCHEM_DONOR_COUNT>
7

> <JCHEM_ACIDIC_PKA>
11.11

> <JCHEM_BASIC_PKA>
0.3

> <JCHEM_PHYSIOLOGICAL_CHARGE>
0

> <ALOGPS_LOGP>
3.99

> <JCHEM_LOGP>
4.27

> <ALOGPS_LOGS>
-5

> <JCHEM_POLARIZABILITY>
131.66

> <JCHEM_POLAR_SURFACE_AREA>
350.18

> <JCHEM_REFRACTIVITY>
350.49

> <JCHEM_ROTATABLE_BOND_COUNT>
11

> <ALOGPS_SOLUBILITY>
1.25e-02 g/l __ 

$$$$
