
  Mrv0541 02231216272D          

 20 19  0  0  0  0            999 V2000
    7.2336   -5.0013    0.0000 C   0  0  0  0  0  0  0  0  0  0  0  0
    7.9480   -5.4138    0.0000 C   0  0  0  0  0  0  0  0  0  0  0  0
    8.6625   -5.0013    0.0000 C   0  0  0  0  0  0  0  0  0  0  0  0
    9.3770   -5.4138    0.0000 C   0  0  0  0  0  0  0  0  0  0  0  0
   10.0914   -5.0013    0.0000 C   0  0  0  0  0  0  0  0  0  0  0  0
   10.8059   -5.4138    0.0000 C   0  0  0  0  0  0  0  0  0  0  0  0
   11.5204   -5.0013    0.0000 C   0  0  0  0  0  0  0  0  0  0  0  0
   12.2349   -5.4138    0.0000 C   0  0  0  0  0  0  0  0  0  0  0  0
   12.9493   -5.0013    0.0000 C   0  0  0  0  0  0  0  0  0  0  0  0
   13.6638   -5.4138    0.0000 C   0  0  0  0  0  0  0  0  0  0  0  0
   14.3783   -5.0013    0.0000 C   0  0  0  0  0  0  0  0  0  0  0  0
   15.0927   -5.4138    0.0000 C   0  0  0  0  0  0  0  0  0  0  0  0
   15.8072   -5.0013    0.0000 C   0  0  0  0  0  0  0  0  0  0  0  0
   16.5217   -5.4138    0.0000 C   0  0  0  0  0  0  0  0  0  0  0  0
   17.2362   -5.0013    0.0000 C   0  0  0  0  0  0  0  0  0  0  0  0
   17.9506   -5.4138    0.0000 C   0  0  0  0  0  0  0  0  0  0  0  0
   18.6651   -5.0013    0.0000 S   0  0  0  0  0  0  0  0  0  0  0  0
   19.3796   -4.5888    0.0000 O   0  0  0  0  0  0  0  0  0  0  0  0
   19.0776   -5.7158    0.0000 O   0  0  0  0  0  0  0  0  0  0  0  0
   18.2526   -4.2868    0.0000 O   0  0  0  0  0  0  0  0  0  0  0  0
  1  2  1  0  0  0  0
  2  3  1  0  0  0  0
  3  4  1  0  0  0  0
  4  5  1  0  0  0  0
  5  6  1  0  0  0  0
  6  7  1  0  0  0  0
  7  8  1  0  0  0  0
  8  9  1  0  0  0  0
  9 10  1  0  0  0  0
 10 11  1  0  0  0  0
 11 12  1  0  0  0  0
 12 13  1  0  0  0  0
 13 14  1  0  0  0  0
 14 15  1  0  0  0  0
 15 16  1  0  0  0  0
 16 17  1  0  0  0  0
 17 18  1  0  0  0  0
 17 19  2  0  0  0  0
 17 20  2  0  0  0  0
M  END
> <DRUGBANK_ID>
DB02776

> <DRUG_GROUPS>
experimental

> <GENERIC_NAME>
1-Hexadecanosulfonic Acid

> <CHEMICAL_FORMULA>
C16H34O3S

> <MOLECULAR_WEIGHT>
306.504

> <EXACT_MASS>
306.222865644

> <IUPAC_NAME>
hexadecane-1-sulfonic acid

> <IUPAC_TRADITIONAL_NAME>
1-hexadecanosulfonic acid

> <INCHI_IDENTIFIER>
InChI=1S/C16H34O3S/c1-2-3-4-5-6-7-8-9-10-11-12-13-14-15-16-20(17,18)19/h2-16H2,1H3,(H,17,18,19)

> <INCHI_KEY>
InChIKey=SSILHZFTFWOUJR-UHFFFAOYSA-N

> <SMILES>
CCCCCCCCCCCCCCCCS(O)(=O)=O

> <JCHEM_ACCEPTOR_COUNT>
3

> <JCHEM_DONOR_COUNT>
1

> <JCHEM_ACIDIC_PKA>
-0.59

> <JCHEM_PHYSIOLOGICAL_CHARGE>
-1

> <ALOGPS_LOGP>
4.03

> <JCHEM_LOGP>
5.85

> <ALOGPS_LOGS>
-5.5

> <JCHEM_POLARIZABILITY>
38.82

> <JCHEM_POLAR_SURFACE_AREA>
54.37

> <JCHEM_REFRACTIVITY>
85.74

> <JCHEM_ROTATABLE_BOND_COUNT>
15

> <ALOGPS_SOLUBILITY>
8.57e-04 g/l __ 

$$$$
