BPY
  Mrv0541 02231216332D          

 14 15  0  0  0  0            999 V2000
   -1.1069    0.3918    0.0000 C   0  0  0  0  0  0  0  0  0  0  0  0
   -0.3924   -0.0207    0.0000 C   0  0  0  0  0  0  0  0  0  0  0  0
   -0.3924   -0.8457    0.0000 C   0  0  0  0  0  0  0  0  0  0  0  0
   -1.1069   -1.2582    0.0000 C   0  0  0  0  0  0  0  0  0  0  0  0
   -1.8213   -0.8457    0.0000 C   0  0  0  0  0  0  0  0  0  0  0  0
   -1.8213   -0.0207    0.0000 C   0  0  0  0  0  0  0  0  0  0  0  0
    0.3221    0.3918    0.0000 C   0  0  0  0  0  0  0  0  0  0  0  0
    0.3221    1.2168    0.0000 C   0  0  0  0  0  0  0  0  0  0  0  0
    1.0366    1.6293    0.0000 C   0  0  0  0  0  0  0  0  0  0  0  0
    1.7510    1.2168    0.0000 C   0  0  0  0  0  0  0  0  0  0  0  0
    1.7510    0.3918    0.0000 C   0  0  0  0  0  0  0  0  0  0  0  0
    1.0366   -0.0207    0.0000 C   0  0  0  0  0  0  0  0  0  0  0  0
   -1.1069   -2.0832    0.0000 O   0  0  0  0  0  0  0  0  0  0  0  0
    0.3221   -1.2582    0.0000 O   0  0  0  0  0  0  0  0  0  0  0  0
  1  2  2  0  0  0  0
  1  6  1  0  0  0  0
  2  3  1  0  0  0  0
  2  7  1  0  0  0  0
  3  4  2  0  0  0  0
  3 14  1  0  0  0  0
  4  5  1  0  0  0  0
  4 13  1  0  0  0  0
  5  6  2  0  0  0  0
  7  8  2  0  0  0  0
  7 12  1  0  0  0  0
  8  9  1  0  0  0  0
  9 10  2  0  0  0  0
 10 11  1  0  0  0  0
 11 12  2  0  0  0  0
M  END
> <DRUGBANK_ID>
DB02923

> <DRUG_GROUPS>
experimental

> <GENERIC_NAME>
Biphenyl-2,3-Diol

> <CHEMICAL_FORMULA>
C12H10O2

> <MOLECULAR_WEIGHT>
186.2066

> <EXACT_MASS>
186.068079564

> <IUPAC_NAME>
3-phenylbenzene-1,2-diol

> <IUPAC_TRADITIONAL_NAME>
biphenyl-2,3-diol

> <INCHI_IDENTIFIER>
InChI=1S/C12H10O2/c13-11-8-4-7-10(12(11)14)9-5-2-1-3-6-9/h1-8,13-14H

> <INCHI_KEY>
InChIKey=YKOQAAJBYBTSBS-UHFFFAOYSA-N

> <SMILES>
OC1=C(O)C(=CC=C1)C1=CC=CC=C1

> <JCHEM_ACCEPTOR_COUNT>
2

> <JCHEM_DONOR_COUNT>
2

> <JCHEM_ACIDIC_PKA>
9.15

> <JCHEM_BASIC_PKA>
-6.3

> <JCHEM_PHYSIOLOGICAL_CHARGE>
0

> <ALOGPS_LOGP>
2.46

> <JCHEM_LOGP>
3.01

> <ALOGPS_LOGS>
-2.5

> <JCHEM_POLARIZABILITY>
19.68

> <JCHEM_POLAR_SURFACE_AREA>
40.46

> <JCHEM_REFRACTIVITY>
55.16

> <JCHEM_ROTATABLE_BOND_COUNT>
1

> <ALOGPS_SOLUBILITY>
5.52e-01 g/l __ 

$$$$
