
  Mrv0541 02231216062D          

 42 46  0  0  0  0            999 V2000
   -0.3052   -2.2858    0.0000 C   0  0  0  0  0  0  0  0  0  0  0  0
    0.3924   -1.8454    0.0000 C   0  0  0  0  0  0  0  0  0  0  0  0
    0.4462   -1.0222    0.0000 C   0  0  0  0  0  0  0  0  0  0  0  0
   -0.1883   -0.4948    0.0000 C   0  0  0  0  0  0  0  0  0  0  0  0
   -0.0487    0.3183    0.0000 C   0  0  0  0  0  0  0  0  0  0  0  0
   -0.6832    0.8457    0.0000 C   0  0  0  0  0  0  0  0  0  0  0  0
   -0.5437    1.6588    0.0000 O   0  0  0  0  0  0  0  0  0  0  0  0
   -1.4571    0.5600    0.0000 O   0  0  0  0  0  0  0  0  0  0  0  0
    1.2457   -0.8189    0.0000 C   0  0  0  0  0  0  0  0  0  0  0  0
    1.7663    0.1186    0.0000 C   0  0  0  0  0  0  0  0  0  0  0  0
    2.4806    0.5312    0.0000 C   0  0  0  0  0  0  0  0  0  0  0  0
    3.1151    0.0039    0.0000 N   0  0  0  0  0  0  0  0  0  0  0  0
    3.8127    0.4443    0.0000 C   0  0  0  0  0  0  0  0  0  0  0  0
    4.7501   -0.0763    0.0000 C   0  0  0  0  0  0  0  0  0  0  0  0
    5.1628   -0.7906    0.0000 C   0  0  0  0  0  0  0  0  0  0  0  0
    4.6354   -1.4251    0.0000 N   0  0  0  0  0  0  0  0  0  0  0  0
    5.0758   -2.1227    0.0000 C   0  0  0  0  0  0  0  0  0  0  0  0
    4.5553   -3.0601    0.0000 C   0  0  0  0  0  0  0  0  0  0  0  0
    3.8409   -3.4728    0.0000 C   0  0  0  0  0  0  0  0  0  0  0  0
    3.2065   -2.9454    0.0000 N   0  0  0  0  0  0  0  0  0  0  0  0
    2.5089   -3.3858    0.0000 C   0  0  0  0  0  0  0  0  0  0  0  0
    1.5714   -2.8653    0.0000 C   0  0  0  0  0  0  0  0  0  0  0  0
    1.1588   -2.1509    0.0000 C   0  0  0  0  0  0  0  0  0  0  0  0
    1.6861   -1.5165    0.0000 N   0  0  0  0  0  0  0  0  0  0  0  0
    2.7122   -4.1854    0.0000 C   0  0  0  0  0  0  0  0  0  0  0  0
    2.1848   -4.8198    0.0000 C   0  0  0  0  0  0  0  0  0  0  0  0
    2.4705   -5.5938    0.0000 C   0  0  0  0  0  0  0  0  0  0  0  0
    3.5354   -4.2392    0.0000 C   0  0  0  0  0  0  0  0  0  0  0  0
    3.9758   -4.9368    0.0000 C   0  0  0  0  0  0  0  0  0  0  0  0
    5.8754   -1.9194    0.0000 C   0  0  0  0  0  0  0  0  0  0  0  0
    6.5098   -2.4468    0.0000 C   0  0  0  0  0  0  0  0  0  0  0  0
    7.2838   -2.1610    0.0000 C   0  0  0  0  0  0  0  0  0  0  0  0
    5.9291   -1.0962    0.0000 C   0  0  0  0  0  0  0  0  0  0  0  0
    6.6268   -0.6557    0.0000 C   0  0  0  0  0  0  0  0  0  0  0  0
    3.6094    1.2438    0.0000 C   0  0  0  0  0  0  0  0  0  0  0  0
    4.1368    1.8783    0.0000 C   0  0  0  0  0  0  0  0  0  0  0  0
    2.7861    1.2976    0.0000 C   0  0  0  0  0  0  0  0  0  0  0  0
    2.3457    1.9952    0.0000 C   0  0  0  0  0  0  0  0  0  0  0  0
    1.5214    1.9626    0.0000 C   0  0  0  0  0  0  0  0  0  0  0  0
    1.1374    1.2324    0.0000 C   0  0  0  0  0  0  0  0  0  0  0  0
    1.5778    0.5348    0.0000 O   0  0  0  0  0  0  0  0  0  0  0  0
    0.3131    1.1998    0.0000 O   0  0  0  0  0  0  0  0  0  0  0  0
  1  2  1  0  0  0  0
  2  3  2  0  0  0  0
  3  4  1  0  0  0  0
  4  5  1  0  0  0  0
  5  6  1  0  0  0  0
  6  7  1  0  0  0  0
  6  8  2  0  0  0  0
  3  9  1  0  0  0  0
  9 10  2  0  0  0  0
 10 11  1  0  0  0  0
 11 12  4  0  0  0  0
 12 13  4  0  0  0  0
 14 13  1  4  0  0  0
 14 15  2  0  0  0  0
 15 16  1  0  0  0  0
 16 17  2  0  0  0  0
 18 17  1  4  0  0  0
 18 19  2  0  0  0  0
 19 20  1  0  0  0  0
 20 21  1  0  0  0  0
 21 22  2  0  0  0  0
 22 23  1  0  0  0  0
  2 23  1  0  0  0  0
 23 24  2  0  0  0  0
  9 24  1  0  0  0  0
 21 25  1  0  0  0  0
 25 26  1  0  0  0  0
 26 27  2  0  0  0  0
 25 28  2  0  0  0  0
 19 28  1  0  0  0  0
 28 29  1  0  0  0  0
 17 30  1  0  0  0  0
 30 31  1  0  0  0  0
 31 32  2  0  0  0  0
 30 33  2  0  0  0  0
 15 33  1  0  0  0  0
 33 34  1  0  0  0  0
 13 35  4  0  0  0  0
 35 36  1  0  0  0  0
 35 37  4  0  0  0  0
 11 37  4  0  0  0  0
 37 38  1  0  0  0  0
 38 39  1  0  0  0  0
 39 40  1  0  0  0  0
 40 41  1  0  0  0  0
 40 42  2  0  0  0  0
M  END
> <DRUGBANK_ID>
DB02285

> <DRUG_GROUPS>
experimental

> <GENERIC_NAME>
Protoporphyrin Ix

> <CHEMICAL_FORMULA>
C34H33N4O4

> <MOLECULAR_WEIGHT>
561.6502

> <EXACT_MASS>
561.250180564

> <SMILES>
CC1=C(CCC(O)=O)\C2=C\c3nc(C=C4N=C(C=C5N\C(=C/C1=N2)C(C=C)=C5C)C(C=C)=C4C)c(C)c3CCC(O)=O

> <JCHEM_ACCEPTOR_COUNT>
7

> <JCHEM_DONOR_COUNT>
3

> <JCHEM_ACIDIC_PKA>
3.24

> <JCHEM_BASIC_PKA>
4.98

> <JCHEM_PHYSIOLOGICAL_CHARGE>
-2

> <ALOGPS_LOGP>
4.47

> <JCHEM_LOGP>
6.61

> <ALOGPS_LOGS>
-4.4

> <JCHEM_POLARIZABILITY>
65.75

> <JCHEM_POLAR_SURFACE_AREA>
129.06

> <JCHEM_REFRACTIVITY>
162.05

> <JCHEM_ROTATABLE_BOND_COUNT>
8

> <ALOGPS_SOLUBILITY>
2.26e-02 g/l __ 

$$$$
