
  Mrv0541 02231216172D          

 28 29  0  0  1  0            999 V2000
    0.4681   -6.0214    0.0000 C   0  0  0  0  0  0  0  0  0  0  0  0
    1.2528   -5.7665    0.0000 C   0  0  0  0  0  0  0  0  0  0  0  0
    1.8658   -6.3185    0.0000 O   0  0  0  0  0  0  0  0  0  0  0  0
    1.4243   -4.9595    0.0000 O   0  0  0  0  0  0  0  0  0  0  0  0
    0.8112   -4.4075    0.0000 C   0  0  1  0  0  0  0  0  0  0  0  0
    0.0042   -4.5790    0.0000 C   0  0  0  0  0  0  0  0  0  0  0  0
   -0.4083   -3.8645    0.0000 C   0  0  2  0  0  0  0  0  0  0  0  0
    0.1437   -3.2514    0.0000 O   0  0  0  0  0  0  0  0  0  0  0  0
    0.8974   -3.5870    0.0000 C   0  0  2  0  0  0  0  0  0  0  0  0
    1.6119   -3.1745    0.0000 C   0  0  0  0  0  0  0  0  0  0  0  0
    2.3264   -3.5870    0.0000 O   0  0  0  0  0  0  0  0  0  0  0  0
    3.0408   -3.1745    0.0000 P   0  0  2  0  0  0  0  0  0  0  0  0
    3.4533   -3.8890    0.0000 O   0  0  0  0  0  0  0  0  0  0  0  0
    2.6283   -2.4600    0.0000 O   0  0  0  0  0  0  0  0  0  0  0  0
    3.7553   -2.7620    0.0000 O   0  0  0  0  0  0  0  0  0  0  0  0
    4.4698   -3.1745    0.0000 P   0  0  0  0  0  0  0  0  0  0  0  0
    4.8823   -2.4600    0.0000 O   0  0  0  0  0  0  0  0  0  0  0  0
    4.0573   -3.8890    0.0000 O   0  0  0  0  0  0  0  0  0  0  0  0
    5.1842   -3.5870    0.0000 O   0  0  0  0  0  0  0  0  0  0  0  0
   -1.2288   -3.7783    0.0000 N   0  0  0  0  0  0  0  0  0  0  0  0
   -1.7137   -4.4457    0.0000 C   0  0  0  0  0  0  0  0  0  0  0  0
   -2.5342   -4.3595    0.0000 C   0  0  0  0  0  0  0  0  0  0  0  0
   -3.0191   -5.0269    0.0000 C   0  0  0  0  0  0  0  0  0  0  0  0
   -2.8697   -3.6058    0.0000 C   0  0  0  0  0  0  0  0  0  0  0  0
   -3.6902   -3.5196    0.0000 O   0  0  0  0  0  0  0  0  0  0  0  0
   -2.3848   -2.9384    0.0000 N   0  0  0  0  0  0  0  0  0  0  0  0
   -1.5643   -3.0246    0.0000 C   0  0  0  0  0  0  0  0  0  0  0  0
   -1.0794   -2.3572    0.0000 O   0  0  0  0  0  0  0  0  0  0  0  0
  1  2  1  0  0  0  0
  2  3  2  0  0  0  0
  2  4  1  0  0  0  0
  5  4  1  1  0  0  0
  5  6  1  0  0  0  0
  6  7  1  0  0  0  0
  7  8  1  0  0  0  0
  8  9  1  0  0  0  0
  5  9  1  0  0  0  0
  9 10  1  6  0  0  0
 10 11  1  0  0  0  0
 12 11  1  6  0  0  0
 12 13  1  1  0  0  0
 12 14  2  0  0  0  0
 12 15  1  0  0  0  0
 15 16  1  0  0  0  0
 16 17  1  0  0  0  0
 16 18  1  0  0  0  0
 16 19  2  0  0  0  0
  7 20  1  1  0  0  0
 20 21  1  0  0  0  0
 21 22  2  0  0  0  0
 22 23  1  0  0  0  0
 22 24  1  0  0  0  0
 24 25  2  0  0  0  0
 24 26  1  0  0  0  0
 26 27  1  0  0  0  0
 20 27  1  0  0  0  0
 27 28  2  0  0  0  0
M  END
> <DRUGBANK_ID>
DB02549

> <DRUG_GROUPS>
experimental

> <GENERIC_NAME>
3'-O-Acetylthymidine-5'-Diphosphate

> <CHEMICAL_FORMULA>
C12H18N2O12P2

> <MOLECULAR_WEIGHT>
444.225

> <EXACT_MASS>
444.033497074

> <IUPAC_NAME>
[({[(2R,3S,5S)-3-(acetyloxy)-5-(5-methyl-2,4-dioxo-1,2,3,4-tetrahydropyrimidin-1-yl)oxolan-2-yl]methoxy}(hydroxy)phosphoryl)oxy]phosphonic acid

> <IUPAC_TRADITIONAL_NAME>
{[(2R,3S,5S)-3-(acetyloxy)-5-(5-methyl-2,4-dioxo-3H-pyrimidin-1-yl)oxolan-2-yl]methoxy(hydroxy)phosphoryl}oxyphosphonic acid

> <INCHI_IDENTIFIER>
InChI=1S/C12H18N2O12P2/c1-6-4-14(12(17)13-11(6)16)10-3-8(24-7(2)15)9(25-10)5-23-28(21,22)26-27(18,19)20/h4,8-10H,3,5H2,1-2H3,(H,21,22)(H,13,16,17)(H2,18,19,20)/t8-,9+,10-/m0/s1

> <INCHI_KEY>
InChIKey=UWSIAAWKEICIJY-AEJSXWLSSA-N

> <SMILES>
CC(=O)O[C@H]1C[C@H](O[C@@H]1CO[P@](O)(=O)OP(O)(O)=O)N1C=C(C)C(=O)NC1=O

> <JCHEM_ACCEPTOR_COUNT>
9

> <JCHEM_DONOR_COUNT>
4

> <JCHEM_ACIDIC_PKA>
1.77

> <JCHEM_BASIC_PKA>
-4.2

> <JCHEM_PHYSIOLOGICAL_CHARGE>
-2

> <ALOGPS_LOGP>
-0.41

> <JCHEM_LOGP>
-1.2

> <ALOGPS_LOGS>
-1.9

> <JCHEM_POLARIZABILITY>
36.47

> <JCHEM_POLAR_SURFACE_AREA>
198.23

> <JCHEM_REFRACTIVITY>
86.31

> <JCHEM_ROTATABLE_BOND_COUNT>
8

> <ALOGPS_SOLUBILITY>
5.43e+00 g/l __ 

$$$$
