
  Mrv0541 02231216292D          

  9  8  0  0  1  0            999 V2000
    1.7605    1.8414    0.0000 N   0  0  0  0  0  0  0  0  0  0  0  0
    2.4750    1.4289    0.0000 O   0  0  0  0  0  0  0  0  0  0  0  0
    3.1895    1.8414    0.0000 C   0  0  0  0  0  0  0  0  0  0  0  0
    3.9039    1.4289    0.0000 C   0  0  0  0  0  0  0  0  0  0  0  0
    4.6184    1.8414    0.0000 C   0  0  1  0  0  0  0  0  0  0  0  0
    4.6184    2.6664    0.0000 N   0  0  0  0  0  0  0  0  0  0  0  0
    5.3329    1.4289    0.0000 C   0  0  0  0  0  0  0  0  0  0  0  0
    6.0474    1.8414    0.0000 O   0  0  0  0  0  0  0  0  0  0  0  0
    5.3329    0.6039    0.0000 O   0  0  0  0  0  0  0  0  0  0  0  0
  1  2  1  0  0  0  0
  2  3  1  0  0  0  0
  3  4  1  0  0  0  0
  4  5  1  0  0  0  0
  5  6  1  1  0  0  0
  5  7  1  0  0  0  0
  7  8  1  0  0  0  0
  7  9  2  0  0  0  0
M  END
> <DRUGBANK_ID>
DB02821

> <DRUG_GROUPS>
experimental

> <GENERIC_NAME>
Canaline

> <CHEMICAL_FORMULA>
C4H10N2O3

> <MOLECULAR_WEIGHT>
134.1338

> <EXACT_MASS>
134.069142196

> <IUPAC_NAME>
(2R)-2-amino-4-(aminooxy)butanoic acid

> <IUPAC_TRADITIONAL_NAME>
canaline

> <INCHI_IDENTIFIER>
InChI=1S/C4H10N2O3/c5-3(4(7)8)1-2-9-6/h3H,1-2,5-6H2,(H,7,8)/t3-/m1/s1

> <INCHI_KEY>
InChIKey=FQPGMQABJNQLLF-GSVOUGTGSA-N

> <SMILES>
NOCC[C@@H](N)C(O)=O

> <JCHEM_ACCEPTOR_COUNT>
5

> <JCHEM_DONOR_COUNT>
3

> <JCHEM_ACIDIC_PKA>
2.24

> <JCHEM_BASIC_PKA>
9.46

> <JCHEM_PHYSIOLOGICAL_CHARGE>
0

> <ALOGPS_LOGP>
-3.2

> <JCHEM_LOGP>
-3.7

> <ALOGPS_LOGS>
0.36

> <JCHEM_POLARIZABILITY>
12.81

> <JCHEM_POLAR_SURFACE_AREA>
98.57

> <JCHEM_REFRACTIVITY>
30.98

> <JCHEM_ROTATABLE_BOND_COUNT>
4

> <ALOGPS_SOLUBILITY>
3.08e+02 g/l __ 

$$$$
