
  Mrv0541 02231216022D          

 13 12  0  0  1  0            999 V2000
    1.7605    1.8414    0.0000 O   0  0  0  0  0  0  0  0  0  0  0  0
    2.4750    1.4289    0.0000 C   0  0  0  0  0  0  0  0  0  0  0  0
    2.4750    0.6039    0.0000 O   0  0  0  0  0  0  0  0  0  0  0  0
    3.1895    1.8414    0.0000 C   0  0  0  0  0  0  0  0  0  0  0  0
    3.9039    1.4289    0.0000 C   0  0  1  0  0  0  0  0  0  0  0  0
    3.9039    0.6039    0.0000 C   0  0  0  0  0  0  0  0  0  0  0  0
    4.6184    0.1914    0.0000 O   0  0  0  0  0  0  0  0  0  0  0  0
    3.1895    0.1914    0.0000 O   0  0  0  0  0  0  0  0  0  0  0  0
    4.6184    1.8414    0.0000 C   0  0  0  0  0  0  0  0  0  0  0  0
    4.6184    2.6664    0.0000 O   0  0  0  0  0  0  0  0  0  0  0  0
    5.3329    1.4289    0.0000 C   0  0  0  0  0  0  0  0  0  0  0  0
    6.0474    1.8414    0.0000 O   0  0  0  0  0  0  0  0  0  0  0  0
    5.3329    0.6039    0.0000 O   0  0  0  0  0  0  0  0  0  0  0  0
  1  2  1  0  0  0  0
  2  3  2  0  0  0  0
  2  4  1  0  0  0  0
  4  5  1  0  0  0  0
  5  6  1  0  0  0  0
  6  7  1  0  0  0  0
  6  8  2  0  0  0  0
  5  9  1  6  0  0  0
  9 10  2  0  0  0  0
  9 11  1  0  0  0  0
 11 12  1  0  0  0  0
 11 13  2  0  0  0  0
M  END
> <DRUGBANK_ID>
DB02190

> <DRUG_GROUPS>
experimental

> <GENERIC_NAME>
2-Oxalosuccinic Acid

> <CHEMICAL_FORMULA>
C6H6O7

> <MOLECULAR_WEIGHT>
190.1076

> <EXACT_MASS>
190.011352546

> <IUPAC_NAME>
(2R)-1-oxopropane-1,2,3-tricarboxylic acid

> <IUPAC_TRADITIONAL_NAME>
2-oxalosuccinic acid

> <INCHI_IDENTIFIER>
InChI=1S/C6H6O7/c7-3(8)1-2(5(10)11)4(9)6(12)13/h2H,1H2,(H,7,8)(H,10,11)(H,12,13)/t2-/m1/s1

> <INCHI_KEY>
InChIKey=UFSCUAXLTRFIDC-UWTATZPHSA-N

> <SMILES>
OC(=O)C[C@@H](C(O)=O)C(=O)C(O)=O

> <JCHEM_ACCEPTOR_COUNT>
7

> <JCHEM_DONOR_COUNT>
3

> <JCHEM_ACIDIC_PKA>
2.38

> <JCHEM_BASIC_PKA>
-10

> <JCHEM_PHYSIOLOGICAL_CHARGE>
-3

> <ALOGPS_LOGP>
-0.55

> <JCHEM_LOGP>
-0.37

> <ALOGPS_LOGS>
-1.4

> <JCHEM_POLARIZABILITY>
14.89

> <JCHEM_POLAR_SURFACE_AREA>
128.97

> <JCHEM_REFRACTIVITY>
35.17

> <JCHEM_ROTATABLE_BOND_COUNT>
5

> <ALOGPS_SOLUBILITY>
7.47e+00 g/l __ 

$$$$
