
  Mrv0541 02231216222D          

  6  6  0  0  0  0            999 V2000
    0.5678    1.9391    0.0000 C   0  0  0  0  0  0  0  0  0  0  0  0
    0.5678    1.1141    0.0000 N   0  0  0  0  0  0  0  0  0  0  0  0
    1.2350    0.6294    0.0000 C   0  0  0  0  0  0  0  0  0  0  0  0
    0.9801   -0.1553    0.0000 C   0  0  0  0  0  0  0  0  0  0  0  0
    0.1553   -0.1553    0.0000 N   0  3  0  0  0  0  0  0  0  0  0  0
   -0.0997    0.6294    0.0000 C   0  0  0  0  0  0  0  0  0  0  0  0
  1  2  1  0  0  0  0
  2  3  1  0  0  0  0
  3  4  2  0  0  0  0
  4  5  1  0  0  0  0
  5  6  2  0  0  0  0
  2  6  1  0  0  0  0
M  END
> <DRUGBANK_ID>
DB02671

> <DRUG_GROUPS>
experimental

> <GENERIC_NAME>
1-Methylimidazole

> <CHEMICAL_FORMULA>
C4H7N2

> <MOLECULAR_WEIGHT>
83.1118

> <EXACT_MASS>
83.060923234

> <IUPAC_NAME>
1-methyl-1H-imidazol-3-ium

> <IUPAC_TRADITIONAL_NAME>
1-methylimidazole

> <INCHI_IDENTIFIER>
InChI=1S/C4H6N2/c1-6-3-2-5-4-6/h2-4H,1H3/p+1

> <INCHI_KEY>
InChIKey=MCTWTZJPVLRJOU-UHFFFAOYSA-O

> <SMILES>
CN1C=C[NH+]=C1

> <JCHEM_ACCEPTOR_COUNT>
0

> <JCHEM_DONOR_COUNT>
1

> <JCHEM_BASIC_PKA>
6.82

> <JCHEM_PHYSIOLOGICAL_CHARGE>
0

> <ALOGPS_LOGP>
-1.5

> <JCHEM_LOGP>
0.078

> <ALOGPS_LOGS>
-1.7

> <JCHEM_POLARIZABILITY>
9

> <JCHEM_POLAR_SURFACE_AREA>
19.07

> <JCHEM_REFRACTIVITY>
23.96

> <JCHEM_ROTATABLE_BOND_COUNT>
0

> <ALOGPS_SOLUBILITY>
2.26e+00 g/l __ 

$$$$
