
  Mrv0541 02231216132D          

 21 22  0  0  1  0            999 V2000
    0.7145    6.7661    0.0000 N   0  0  0  0  0  0  0  0  0  0  0  0
    0.7145    5.9411    0.0000 C   0  0  0  0  0  0  0  0  0  0  0  0
    1.4289    5.5286    0.0000 N   0  0  0  0  0  0  0  0  0  0  0  0
    1.4289    4.7036    0.0000 C   0  0  0  0  0  0  0  0  0  0  0  0
    2.1434    4.2911    0.0000 O   0  0  0  0  0  0  0  0  0  0  0  0
    0.7145    4.2911    0.0000 N   0  0  0  0  0  0  0  0  0  0  0  0
    0.0000    4.7036    0.0000 C   0  0  0  0  0  0  0  0  0  0  0  0
    0.0000    5.5286    0.0000 C   0  0  0  0  0  0  0  0  0  0  0  0
    0.7145    3.4661    0.0000 C   0  0  2  0  0  0  0  0  0  0  0  0
    1.3819    2.9812    0.0000 O   0  0  0  0  0  0  0  0  0  0  0  0
    1.1270    2.1965    0.0000 C   0  0  1  0  0  0  0  0  0  0  0  0
    1.6119    1.5291    0.0000 C   0  0  0  0  0  0  0  0  0  0  0  0
    1.2763    0.7754    0.0000 O   0  0  0  0  0  0  0  0  0  0  0  0
    1.7613    0.1080    0.0000 P   0  0  0  0  0  0  0  0  0  0  0  0
    2.2462   -0.5595    0.0000 O   0  0  0  0  0  0  0  0  0  0  0  0
    1.0938   -0.3769    0.0000 O   0  0  0  0  0  0  0  0  0  0  0  0
    2.4287    0.5929    0.0000 O   0  0  0  0  0  0  0  0  0  0  0  0
    0.3020    2.1965    0.0000 C   0  0  2  0  0  0  0  0  0  0  0  0
   -0.1830    1.5291    0.0000 O   0  0  0  0  0  0  0  0  0  0  0  0
    0.0470    2.9812    0.0000 C   0  0  1  0  0  0  0  0  0  0  0  0
   -0.7376    3.2361    0.0000 O   0  0  0  0  0  0  0  0  0  0  0  0
  1  2  1  0  0  0  0
  2  3  2  0  0  0  0
  3  4  1  0  0  0  0
  4  5  2  0  0  0  0
  4  6  1  0  0  0  0
  6  7  1  0  0  0  0
  7  8  2  0  0  0  0
  2  8  1  0  0  0  0
  9  6  1  6  0  0  0
  9 10  1  0  0  0  0
 10 11  1  0  0  0  0
 11 12  1  1  0  0  0
 12 13  1  0  0  0  0
 13 14  1  0  0  0  0
 14 15  1  0  0  0  0
 14 16  1  0  0  0  0
 14 17  2  0  0  0  0
 11 18  1  0  0  0  0
 18 19  1  6  0  0  0
 18 20  1  0  0  0  0
  9 20  1  0  0  0  0
 20 21  1  1  0  0  0
M  END
> <DRUGBANK_ID>
DB02456

> <DRUG_GROUPS>
experimental

> <GENERIC_NAME>
Cytosine Arabinose-5'-Phosphate

> <CHEMICAL_FORMULA>
C9H14N3O8P

> <MOLECULAR_WEIGHT>
323.1965

> <EXACT_MASS>
323.051850951

> <IUPAC_NAME>
{[(2S,3R,4R,5R)-5-(4-amino-2-oxo-1,2-dihydropyrimidin-1-yl)-3,4-dihydroxyoxolan-2-yl]methoxy}phosphonic acid

> <IUPAC_TRADITIONAL_NAME>
[(2S,3R,4R,5R)-5-(4-amino-2-oxopyrimidin-1-yl)-3,4-dihydroxyoxolan-2-yl]methoxyphosphonic acid

> <INCHI_IDENTIFIER>
InChI=1S/C9H14N3O8P/c10-5-1-2-12(9(15)11-5)8-7(14)6(13)4(20-8)3-19-21(16,17)18/h1-2,4,6-8,13-14H,3H2,(H2,10,11,15)(H2,16,17,18)/t4-,6-,7+,8+/m0/s1

> <INCHI_KEY>
InChIKey=IERHLVCPSMICTF-ZAKLUEHWSA-N

> <SMILES>
NC1=NC(=O)N(C=C1)[C@@H]1O[C@@H](COP(O)(O)=O)[C@H](O)[C@H]1O

> <JCHEM_ACCEPTOR_COUNT>
9

> <JCHEM_DONOR_COUNT>
5

> <JCHEM_ACIDIC_PKA>
1.23

> <JCHEM_BASIC_PKA>
-0.62

> <JCHEM_PHYSIOLOGICAL_CHARGE>
-2

> <ALOGPS_LOGP>
-2

> <JCHEM_LOGP>
-3.3

> <ALOGPS_LOGS>
-1.3

> <JCHEM_POLARIZABILITY>
27.03

> <JCHEM_POLAR_SURFACE_AREA>
175.14

> <JCHEM_REFRACTIVITY>
65.42

> <JCHEM_ROTATABLE_BOND_COUNT>
4

> <ALOGPS_SOLUBILITY>
1.63e+01 g/l __ 

$$$$
