
  Mrv0541 02231216022D          

  7  6  0  0  0  0            999 V2000
    1.2375    2.1434    0.0000 O   0  5  0  0  0  0  0  0  0  0  0  0
    0.8250    1.4289    0.0000 C   0  0  0  0  0  0  0  0  0  0  0  0
    0.0000    1.4289    0.0000 O   0  0  0  0  0  0  0  0  0  0  0  0
    1.2375    0.7145    0.0000 C   0  0  0  0  0  0  0  0  0  0  0  0
    0.8250    0.0000    0.0000 C   0  0  0  0  0  0  0  0  0  0  0  0
    1.2375   -0.7145    0.0000 O   0  5  0  0  0  0  0  0  0  0  0  0
    0.0000    0.0000    0.0000 O   0  0  0  0  0  0  0  0  0  0  0  0
  1  2  1  0  0  0  0
  2  3  2  0  0  0  0
  2  4  1  0  0  0  0
  4  5  1  0  0  0  0
  5  6  1  0  0  0  0
  5  7  2  0  0  0  0
M  END
> <DRUGBANK_ID>
DB02201

> <DRUG_GROUPS>
experimental

> <GENERIC_NAME>
Malonate Ion

> <CHEMICAL_FORMULA>
C3H2O4

> <MOLECULAR_WEIGHT>
102.0456

> <EXACT_MASS>
101.995308552

> <IUPAC_NAME>
propanedioate

> <IUPAC_TRADITIONAL_NAME>
malonate ion

> <INCHI_IDENTIFIER>
InChI=1S/C3H4O4/c4-2(5)1-3(6)7/h1H2,(H,4,5)(H,6,7)/p-2

> <INCHI_KEY>
InChIKey=OFOBLEOULBTSOW-UHFFFAOYSA-L

> <SMILES>
[O-]C(=O)CC([O-])=O

> <JCHEM_ACCEPTOR_COUNT>
4

> <JCHEM_DONOR_COUNT>
0

> <JCHEM_ACIDIC_PKA>
2.43

> <JCHEM_PHYSIOLOGICAL_CHARGE>
-2

> <ALOGPS_LOGP>
-0.45

> <JCHEM_LOGP>
-0.33

> <ALOGPS_LOGS>
0.53

> <JCHEM_POLARIZABILITY>
7.33

> <JCHEM_POLAR_SURFACE_AREA>
80.26

> <JCHEM_REFRACTIVITY>
40.66

> <JCHEM_ROTATABLE_BOND_COUNT>
2

> <ALOGPS_SOLUBILITY>
4.67e+02 g/l __ 

$$$$
