4TB
  Mrv0541 02231216122D          

 11 11  0  0  0  0            999 V2000
   -1.5757    0.3251    0.0000 S   0  0  0  0  0  0  0  0  0  0  0  0
   -0.8220   -0.0105    0.0000 C   0  0  0  0  0  0  0  0  0  0  0  0
   -0.9083   -0.8310    0.0000 C   0  0  0  0  0  0  0  0  0  0  0  0
   -1.7153   -1.0026    0.0000 C   0  0  0  0  0  0  0  0  0  0  0  0
   -2.1279   -0.2880    0.0000 C   0  0  0  0  0  0  0  0  0  0  0  0
   -0.1075    0.4020    0.0000 C   0  0  0  0  0  0  0  0  0  0  0  0
    0.6070   -0.0105    0.0000 C   0  0  0  0  0  0  0  0  0  0  0  0
    1.3216    0.4020    0.0000 C   0  0  0  0  0  0  0  0  0  0  0  0
    2.0361   -0.0105    0.0000 C   0  0  0  0  0  0  0  0  0  0  0  0
    2.7506    0.4020    0.0000 O   0  0  0  0  0  0  0  0  0  0  0  0
    2.0361   -0.8356    0.0000 O   0  0  0  0  0  0  0  0  0  0  0  0
  1  2  1  0  0  0  0
  1  5  1  0  0  0  0
  2  3  2  0  0  0  0
  2  6  1  0  0  0  0
  3  4  1  0  0  0  0
  4  5  2  0  0  0  0
  6  7  1  0  0  0  0
  7  8  1  0  0  0  0
  8  9  1  0  0  0  0
  9 10  1  0  0  0  0
  9 11  2  0  0  0  0
M  END
> <DRUGBANK_ID>
DB02434

> <DRUG_GROUPS>
experimental

> <GENERIC_NAME>
4-(2-Thienyl)Butyric Acid

> <CHEMICAL_FORMULA>
C8H10O2S

> <MOLECULAR_WEIGHT>
170.229

> <EXACT_MASS>
170.040150254

> <IUPAC_NAME>
4-(thiophen-2-yl)butanoic acid

> <IUPAC_TRADITIONAL_NAME>
4-(2-thienyl)butyric acid

> <INCHI_IDENTIFIER>
InChI=1S/C8H10O2S/c9-8(10)5-1-3-7-4-2-6-11-7/h2,4,6H,1,3,5H2,(H,9,10)

> <INCHI_KEY>
InChIKey=VYTXLSQVYGNWLV-UHFFFAOYSA-N

> <SMILES>
OC(=O)CCCC1=CC=CS1

> <JCHEM_ACCEPTOR_COUNT>
2

> <JCHEM_DONOR_COUNT>
1

> <JCHEM_ACIDIC_PKA>
4.94

> <JCHEM_BASIC_PKA>
-8

> <JCHEM_PHYSIOLOGICAL_CHARGE>
-1

> <ALOGPS_LOGP>
2.5

> <JCHEM_LOGP>
2.41

> <ALOGPS_LOGS>
-2.6

> <JCHEM_POLARIZABILITY>
17.66

> <JCHEM_POLAR_SURFACE_AREA>
37.3

> <JCHEM_REFRACTIVITY>
43.61

> <JCHEM_ROTATABLE_BOND_COUNT>
4

> <ALOGPS_SOLUBILITY>
3.80e-01 g/l __ 

$$$$
