
  Mrv0541 02231216122D          

 13 12  0  0  1  0            999 V2000
    4.6184    0.1914    0.0000 C   0  0  0  0  0  0  0  0  0  0  0  0
    3.9039    0.6039    0.0000 O   0  0  0  0  0  0  0  0  0  0  0  0
    3.9039    1.4289    0.0000 C   0  0  2  0  0  0  0  0  0  0  0  0
    3.1895    1.8414    0.0000 C   0  0  1  0  0  0  0  0  0  0  0  0
    3.1895    2.6664    0.0000 O   0  0  0  0  0  0  0  0  0  0  0  0
    2.4750    1.4289    0.0000 C   0  0  2  0  0  0  0  0  0  0  0  0
    2.4750    0.6039    0.0000 O   0  0  0  0  0  0  0  0  0  0  0  0
    1.7605    1.8414    0.0000 C   0  0  0  0  0  0  0  0  0  0  0  0
    1.0461    1.4289    0.0000 O   0  0  0  0  0  0  0  0  0  0  0  0
    4.6184    1.8414    0.0000 C   0  0  0  0  0  0  0  0  0  0  0  0
    4.6184    2.6664    0.0000 O   0  0  0  0  0  0  0  0  0  0  0  0
    5.3329    1.4289    0.0000 C   0  0  0  0  0  0  0  0  0  0  0  0
    6.0474    1.8414    0.0000 O   0  0  0  0  0  0  0  0  0  0  0  0
  1  2  1  0  0  0  0
  3  2  1  6  0  0  0
  3  4  1  0  0  0  0
  4  5  1  6  0  0  0
  4  6  1  0  0  0  0
  6  7  1  6  0  0  0
  6  8  1  0  0  0  0
  8  9  1  0  0  0  0
  3 10  1  0  0  0  0
 10 11  2  0  0  0  0
 10 12  1  0  0  0  0
 12 13  1  0  0  0  0
M  END
> <DRUGBANK_ID>
DB02438

> <DRUG_GROUPS>
experimental

> <GENERIC_NAME>
3-O-Methylfructose in Linear Form

> <CHEMICAL_FORMULA>
C7H14O6

> <MOLECULAR_WEIGHT>
194.1825

> <EXACT_MASS>
194.07903818

> <IUPAC_NAME>
(3R,4S,5R)-1,4,5,6-tetrahydroxy-3-methoxyhexan-2-one

> <IUPAC_TRADITIONAL_NAME>
(3R,4S,5R)-1,4,5,6-tetrahydroxy-3-methoxyhexan-2-one

> <INCHI_IDENTIFIER>
InChI=1S/C7H14O6/c1-13-7(5(11)3-9)6(12)4(10)2-8/h4,6-10,12H,2-3H2,1H3/t4-,6+,7+/m1/s1

> <INCHI_KEY>
InChIKey=OFSVCCCZZQKHKQ-PIYBLCFFSA-N

> <SMILES>
CO[C@H]([C@@H](O)[C@H](O)CO)C(=O)CO

> <JCHEM_ACCEPTOR_COUNT>
6

> <JCHEM_DONOR_COUNT>
4

> <JCHEM_ACIDIC_PKA>
12.48

> <JCHEM_BASIC_PKA>
-3

> <JCHEM_PHYSIOLOGICAL_CHARGE>
0

> <ALOGPS_LOGP>
-1.9

> <JCHEM_LOGP>
-2.6

> <ALOGPS_LOGS>
0.42

> <JCHEM_POLARIZABILITY>
18.25

> <JCHEM_POLAR_SURFACE_AREA>
107.22

> <JCHEM_REFRACTIVITY>
42.31

> <JCHEM_ROTATABLE_BOND_COUNT>
6

> <ALOGPS_SOLUBILITY>
5.07e+02 g/l __ 

$$$$
