
  Mrv0541 02231216052D          

 13 12  0  0  1  0            999 V2000
    2.2836    2.1434    0.0000 C   0  0  0  0  0  0  0  0  0  0  0  0
    2.9980    2.5559    0.0000 C   0  0  1  0  0  0  0  0  0  0  0  0
    2.9980    3.3809    0.0000 N   0  0  0  0  0  0  0  0  0  0  0  0
    3.7125    2.1434    0.0000 C   0  0  0  0  0  0  0  0  0  0  0  0
    3.7125    1.3184    0.0000 O   0  0  0  0  0  0  0  0  0  0  0  0
    4.4270    2.5559    0.0000 C   0  0  0  0  0  0  0  0  0  0  0  0
    5.1414    2.1434    0.0000 C   0  0  0  0  0  0  0  0  0  0  0  0
    5.8559    2.5559    0.0000 C   0  0  0  0  0  0  0  0  0  0  0  0
    6.5704    2.1434    0.0000 C   0  0  0  0  0  0  0  0  0  0  0  0
    7.2849    2.5559    0.0000 C   0  0  0  0  0  0  0  0  0  0  0  0
    7.9993    2.1434    0.0000 C   0  0  0  0  0  0  0  0  0  0  0  0
    8.7138    2.5559    0.0000 O   0  0  0  0  0  0  0  0  0  0  0  0
    7.9993    1.3184    0.0000 O   0  0  0  0  0  0  0  0  0  0  0  0
  1  2  1  0  0  0  0
  2  3  1  1  0  0  0
  2  4  1  0  0  0  0
  4  5  2  0  0  0  0
  4  6  1  0  0  0  0
  6  7  1  0  0  0  0
  7  8  1  0  0  0  0
  8  9  1  0  0  0  0
  9 10  1  0  0  0  0
 10 11  1  0  0  0  0
 11 12  1  0  0  0  0
 11 13  2  0  0  0  0
M  END
> <DRUGBANK_ID>
DB02274

> <DRUG_GROUPS>
experimental

> <GENERIC_NAME>
7-Keto-8-Aminopelargonic Acid

> <CHEMICAL_FORMULA>
C9H17NO3

> <MOLECULAR_WEIGHT>
187.2362

> <EXACT_MASS>
187.120843415

> <IUPAC_NAME>
(8R)-8-amino-7-oxononanoic acid

> <IUPAC_TRADITIONAL_NAME>
(8R)-8-amino-7-oxononanoic acid

> <INCHI_IDENTIFIER>
InChI=1S/C9H17NO3/c1-7(10)8(11)5-3-2-4-6-9(12)13/h7H,2-6,10H2,1H3,(H,12,13)/t7-/m1/s1

> <INCHI_KEY>
InChIKey=GUAHPAJOXVYFON-SSDOTTSWSA-N

> <SMILES>
C[C@@H](N)C(=O)CCCCCC(O)=O

> <JCHEM_ACCEPTOR_COUNT>
4

> <JCHEM_DONOR_COUNT>
2

> <JCHEM_ACIDIC_PKA>
4.45

> <JCHEM_BASIC_PKA>
8.08

> <JCHEM_PHYSIOLOGICAL_CHARGE>
0

> <ALOGPS_LOGP>
-2

> <JCHEM_LOGP>
-1.3

> <ALOGPS_LOGS>
-1.7

> <JCHEM_POLARIZABILITY>
20.76

> <JCHEM_POLAR_SURFACE_AREA>
80.39

> <JCHEM_REFRACTIVITY>
48.74

> <JCHEM_ROTATABLE_BOND_COUNT>
7

> <ALOGPS_SOLUBILITY>
3.84e+00 g/l __ 

$$$$
