
  Mrv0541 02231216282D          

 12 11  0  0  1  0            999 V2000
    1.0461    1.4289    0.0000 O   0  0  0  0  0  0  0  0  0  0  0  0
    1.7605    1.8414    0.0000 C   0  0  0  0  0  0  0  0  0  0  0  0
    2.4750    1.4289    0.0000 C   0  0  2  0  0  0  0  0  0  0  0  0
    2.4750    0.6039    0.0000 O   0  0  0  0  0  0  0  0  0  0  0  0
    3.1895    1.8414    0.0000 C   0  0  1  0  0  0  0  0  0  0  0  0
    3.1895    2.6664    0.0000 O   0  0  0  0  0  0  0  0  0  0  0  0
    3.9039    1.4289    0.0000 C   0  0  0  0  0  0  0  0  0  0  0  0
    4.6184    1.8414    0.0000 C   0  0  2  0  0  0  0  0  0  0  0  0
    4.6184    2.6664    0.0000 O   0  0  0  0  0  0  0  0  0  0  0  0
    5.3329    1.4289    0.0000 C   0  0  0  0  0  0  0  0  0  0  0  0
    6.0474    1.8414    0.0000 O   0  0  0  0  0  0  0  0  0  0  0  0
    5.3329    0.6039    0.0000 O   0  0  0  0  0  0  0  0  0  0  0  0
  1  2  1  0  0  0  0
  2  3  1  0  0  0  0
  3  4  1  1  0  0  0
  3  5  1  0  0  0  0
  5  6  1  1  0  0  0
  5  7  1  0  0  0  0
  7  8  1  0  0  0  0
  8  9  1  6  0  0  0
  8 10  1  0  0  0  0
 10 11  1  0  0  0  0
 10 12  2  0  0  0  0
M  END
> <DRUGBANK_ID>
DB02807

> <DRUG_GROUPS>
experimental

> <GENERIC_NAME>
D-2-Keto-3-Deoxygalactonate

> <CHEMICAL_FORMULA>
C6H12O6

> <MOLECULAR_WEIGHT>
180.1559

> <EXACT_MASS>
180.063388116

> <IUPAC_NAME>
(2S,4S,5S)-2,4,5,6-tetrahydroxyhexanoic acid

> <IUPAC_TRADITIONAL_NAME>
D-2-keto-3-deoxygluconate

> <INCHI_IDENTIFIER>
InChI=1S/C6H12O6/c7-2-5(10)3(8)1-4(9)6(11)12/h3-5,7-10H,1-2H2,(H,11,12)/t3-,4-,5-/m0/s1

> <INCHI_KEY>
InChIKey=YGMNHEPVTNXLLS-YUPRTTJUSA-N

> <SMILES>
OC[C@H](O)[C@@H](O)C[C@H](O)C(O)=O

> <JCHEM_ACCEPTOR_COUNT>
6

> <JCHEM_DONOR_COUNT>
5

> <JCHEM_ACIDIC_PKA>
3.57

> <JCHEM_BASIC_PKA>
-3

> <JCHEM_PHYSIOLOGICAL_CHARGE>
-1

> <ALOGPS_LOGP>
-2.5

> <JCHEM_LOGP>
-2.7

> <ALOGPS_LOGS>
0.15

> <JCHEM_POLARIZABILITY>
16.49

> <JCHEM_POLAR_SURFACE_AREA>
118.22

> <JCHEM_REFRACTIVITY>
37.17

> <JCHEM_ROTATABLE_BOND_COUNT>
5

> <ALOGPS_SOLUBILITY>
2.55e+02 g/l __ 

$$$$
