
  Mrv0541 02231216052D          

 17 17  0  0  1  0            999 V2000
    2.1434    1.2375    0.0000 O   0  0  0  0  0  0  0  0  0  0  0  0
    1.4289    0.8250    0.0000 C   0  0  1  0  0  0  0  0  0  0  0  0
    1.4289    0.0000    0.0000 O   0  0  0  0  0  0  0  0  0  0  0  0
    0.7145   -0.4125    0.0000 C   0  0  2  0  0  0  0  0  0  0  0  0
    0.0000    0.0000    0.0000 C   0  0  2  0  0  0  0  0  0  0  0  0
   -0.7145   -0.4125    0.0000 O   0  0  0  0  0  0  0  0  0  0  0  0
    0.0000    0.8250    0.0000 C   0  0  1  0  0  0  0  0  0  0  0  0
   -0.7145    1.2375    0.0000 O   0  0  0  0  0  0  0  0  0  0  0  0
    0.7145    1.2375    0.0000 C   0  0  2  0  0  0  0  0  0  0  0  0
    0.7145    2.0625    0.0000 O   0  0  0  0  0  0  0  0  0  0  0  0
    0.0000    2.4750    0.0000 S   0  0  0  0  0  0  0  0  0  0  0  0
   -0.7145    2.8875    0.0000 O   0  0  0  0  0  0  0  0  0  0  0  0
   -0.4125    1.7605    0.0000 O   0  0  0  0  0  0  0  0  0  0  0  0
    0.4125    3.1895    0.0000 O   0  0  0  0  0  0  0  0  0  0  0  0
    0.7145   -1.2375    0.0000 C   0  0  0  0  0  0  0  0  0  0  0  0
    1.4289   -1.6500    0.0000 O   0  0  0  0  0  0  0  0  0  0  0  0
    0.0000   -1.6500    0.0000 O   0  0  0  0  0  0  0  0  0  0  0  0
  2  1  1  1  0  0  0
  2  3  1  0  0  0  0
  3  4  1  0  0  0  0
  4  5  1  0  0  0  0
  5  6  1  6  0  0  0
  5  7  1  0  0  0  0
  7  8  1  1  0  0  0
  7  9  1  0  0  0  0
  2  9  1  0  0  0  0
  9 10  1  6  0  0  0
 10 11  1  0  0  0  0
 11 12  1  0  0  0  0
 11 13  2  0  0  0  0
 11 14  2  0  0  0  0
  4 15  1  1  0  0  0
 15 16  1  0  0  0  0
 15 17  2  0  0  0  0
M  END
> <DRUGBANK_ID>
DB02264

> <DRUG_GROUPS>
experimental

> <GENERIC_NAME>
O2-Sulfo-Glucuronic Acid

> <CHEMICAL_FORMULA>
C6H10O10S

> <MOLECULAR_WEIGHT>
274.203

> <EXACT_MASS>
273.99946723

> <IUPAC_NAME>
(2R,3R,4R,5S,6S)-3,4,6-trihydroxy-5-(sulfooxy)oxane-2-carboxylic acid

> <IUPAC_TRADITIONAL_NAME>
O2-sulfo-glucuronic acid

> <INCHI_IDENTIFIER>
InChI=1S/C6H10O10S/c7-1-2(8)4(16-17(12,13)14)6(11)15-3(1)5(9)10/h1-4,6-8,11H,(H,9,10)(H,12,13,14)/t1-,2-,3-,4+,6+/m1/s1

> <INCHI_KEY>
InChIKey=COJBCAMFZDFGFK-SZXBDDMQSA-N

> <SMILES>
O[C@H]1O[C@H]([C@H](O)[C@@H](O)[C@@H]1OS(O)(=O)=O)C(O)=O

> <JCHEM_ACCEPTOR_COUNT>
9

> <JCHEM_DONOR_COUNT>
5

> <JCHEM_ACIDIC_PKA>
-2.1

> <JCHEM_BASIC_PKA>
-3.7

> <JCHEM_PHYSIOLOGICAL_CHARGE>
-2

> <ALOGPS_LOGP>
-1.6

> <JCHEM_LOGP>
-4.5

> <ALOGPS_LOGS>
-0.54

> <JCHEM_POLARIZABILITY>
21.61

> <JCHEM_POLAR_SURFACE_AREA>
170.82

> <JCHEM_REFRACTIVITY>
45.78

> <JCHEM_ROTATABLE_BOND_COUNT>
3

> <ALOGPS_SOLUBILITY>
7.82e+01 g/l __ 

$$$$
