
  Mrv0541 02231216022D          

 29 31  0  0  1  0            999 V2000
    0.2442   -0.8768    0.0000 N   0  0  0  0  0  0  0  0  0  0  0  0
    0.3304   -0.0563    0.0000 C   0  0  0  0  0  0  0  0  0  0  0  0
   -0.3370    0.4286    0.0000 N   0  0  0  0  0  0  0  0  0  0  0  0
   -0.2508    1.2491    0.0000 C   0  0  0  0  0  0  0  0  0  0  0  0
    0.5029    1.5846    0.0000 N   0  0  0  0  0  0  0  0  0  0  0  0
    1.1704    1.0997    0.0000 C   0  0  0  0  0  0  0  0  0  0  0  0
    1.0841    0.2792    0.0000 C   0  0  0  0  0  0  0  0  0  0  0  0
    1.8378   -0.0563    0.0000 N   0  0  0  0  0  0  0  0  0  0  0  0
    2.3898    0.5568    0.0000 C   0  0  0  0  0  0  0  0  0  0  0  0
    1.9773    1.2712    0.0000 N   0  0  0  0  0  0  0  0  0  0  0  0
    2.3129    2.0249    0.0000 C   0  0  1  0  0  0  0  0  0  0  0  0
    1.9004    2.7394    0.0000 C   0  0  0  0  0  0  0  0  0  0  0  0
    2.4524    3.3525    0.0000 C   0  0  0  0  0  0  0  0  0  0  0  0
    3.2061    3.0169    0.0000 C   0  0  1  0  0  0  0  0  0  0  0  0
    3.9206    3.4294    0.0000 C   0  0  0  0  0  0  0  0  0  0  0  0
    4.6350    3.0169    0.0000 O   0  0  0  0  0  0  0  0  0  0  0  0
    5.3495    3.4294    0.0000 P   0  0  1  0  0  0  0  0  0  0  0  0
    5.7620    2.7150    0.0000 O   0  0  0  0  0  0  0  0  0  0  0  0
    4.9370    4.1439    0.0000 O   0  0  0  0  0  0  0  0  0  0  0  0
    6.0640    3.8419    0.0000 O   0  0  0  0  0  0  0  0  0  0  0  0
    6.7784    3.4294    0.0000 P   0  0  2  0  0  0  0  0  0  0  0  0
    6.3659    2.7150    0.0000 O   0  0  0  0  0  0  0  0  0  0  0  0
    7.1909    4.1439    0.0000 O   0  0  0  0  0  0  0  0  0  0  0  0
    7.4929    3.0169    0.0000 O   0  0  0  0  0  0  0  0  0  0  0  0
    8.2074    3.4294    0.0000 P   0  0  0  0  0  0  0  0  0  0  0  0
    8.9219    3.8419    0.0000 O   0  0  0  0  0  0  0  0  0  0  0  0
    8.6199    2.7150    0.0000 O   0  0  0  0  0  0  0  0  0  0  0  0
    7.7949    4.1439    0.0000 O   0  0  0  0  0  0  0  0  0  0  0  0
    3.1199    2.1964    0.0000 O   0  0  0  0  0  0  0  0  0  0  0  0
  1  2  1  0  0  0  0
  2  3  2  0  0  0  0
  3  4  1  0  0  0  0
  4  5  2  0  0  0  0
  5  6  1  0  0  0  0
  6  7  2  0  0  0  0
  2  7  1  0  0  0  0
  7  8  1  0  0  0  0
  8  9  2  0  0  0  0
  9 10  1  0  0  0  0
  6 10  1  0  0  0  0
 11 10  1  1  0  0  0
 11 12  1  0  0  0  0
 12 13  1  0  0  0  0
 13 14  1  0  0  0  0
 14 15  1  1  0  0  0
 15 16  1  0  0  0  0
 17 16  1  1  0  0  0
 17 18  1  6  0  0  0
 17 19  2  0  0  0  0
 17 20  1  0  0  0  0
 21 20  1  6  0  0  0
 21 22  1  1  0  0  0
 21 23  2  0  0  0  0
 21 24  1  0  0  0  0
 24 25  1  0  0  0  0
 25 26  1  0  0  0  0
 25 27  1  0  0  0  0
 25 28  2  0  0  0  0
 14 29  1  0  0  0  0
 11 29  1  0  0  0  0
M  END
> <DRUGBANK_ID>
DB02189

> <DRUG_GROUPS>
experimental

> <GENERIC_NAME>
2',3'-Dideoxyadenosine-5'-Triphosphate

> <CHEMICAL_FORMULA>
C10H16N5O11P3

> <MOLECULAR_WEIGHT>
475.1822

> <EXACT_MASS>
475.005915915

> <IUPAC_NAME>
({[({[(2S,5R)-5-(6-amino-9H-purin-9-yl)oxolan-2-yl]methoxy}(hydroxy)phosphoryl)oxy](hydroxy)phosphoryl}oxy)phosphonic acid

> <IUPAC_TRADITIONAL_NAME>
({[(2S,5R)-5-(6-aminopurin-9-yl)oxolan-2-yl]methoxy(hydroxy)phosphoryl}oxy(hydroxy)phosphoryl)oxyphosphonic acid

> <INCHI_IDENTIFIER>
InChI=1S/C10H16N5O11P3/c11-9-8-10(13-4-12-9)15(5-14-8)7-2-1-6(24-7)3-23-28(19,20)26-29(21,22)25-27(16,17)18/h4-7H,1-3H2,(H,19,20)(H,21,22)(H2,11,12,13)(H2,16,17,18)/t6-,7+/m0/s1

> <INCHI_KEY>
InChIKey=OAKPWEUQDVLTCN-NKWVEPMBSA-N

> <SMILES>
NC1=NC=NC2=C1N=CN2[C@H]1CC[C@@H](CO[P@@](O)(=O)O[P@](O)(=O)OP(O)(O)=O)O1

> <JCHEM_ACCEPTOR_COUNT>
12

> <JCHEM_DONOR_COUNT>
5

> <JCHEM_ACIDIC_PKA>
0.9

> <JCHEM_BASIC_PKA>
5.01

> <JCHEM_PHYSIOLOGICAL_CHARGE>
-3

> <ALOGPS_LOGP>
-0.44

> <JCHEM_LOGP>
-4.6

> <ALOGPS_LOGS>
-2.2

> <JCHEM_POLARIZABILITY>
36.83

> <JCHEM_POLAR_SURFACE_AREA>
238.67

> <JCHEM_REFRACTIVITY>
93.51

> <JCHEM_ROTATABLE_BOND_COUNT>
8

> <ALOGPS_SOLUBILITY>
3.05e+00 g/l __ 

$$$$
