
  Mrv0541 02231215572D          

 34 37  0  0  0  0            999 V2000
  -11.6747   -6.5845    0.0000 Cl   0  0  0  0  0  0  0  0  0  0  0  0
  -10.8497   -6.5845    0.0000 C    0  0  0  0  0  0  0  0  0  0  0  0
  -10.4372   -5.8701    0.0000 C    0  0  0  0  0  0  0  0  0  0  0  0
   -9.6122   -5.8701    0.0000 C    0  0  0  0  0  0  0  0  0  0  0  0
   -9.1997   -6.5845    0.0000 C    0  0  0  0  0  0  0  0  0  0  0  0
   -8.3927   -6.4130    0.0000 N    0  0  0  0  0  0  0  0  0  0  0  0
   -8.3065   -5.5925    0.0000 C    0  0  0  0  0  0  0  0  0  0  0  0
   -9.0602   -5.2570    0.0000 C    0  0  0  0  0  0  0  0  0  0  0  0
   -7.5920   -5.1800    0.0000 C    0  0  0  0  0  0  0  0  0  0  0  0
   -7.5920   -4.3550    0.0000 O    0  0  0  0  0  0  0  0  0  0  0  0
   -6.8775   -5.5925    0.0000 N    0  0  0  0  0  0  0  0  0  0  0  0
   -6.1631   -5.1800    0.0000 C    0  0  0  0  0  0  0  0  0  0  0  0
   -5.4486   -5.5925    0.0000 C    0  0  0  0  0  0  0  0  0  0  0  0
   -4.7341   -5.1800    0.0000 O    0  0  0  0  0  0  0  0  0  0  0  0
   -4.0197   -5.5925    0.0000 C    0  0  0  0  0  0  0  0  0  0  0  0
   -3.3052   -5.1800    0.0000 C    0  0  0  0  0  0  0  0  0  0  0  0
   -2.5907   -5.5925    0.0000 O    0  0  0  0  0  0  0  0  0  0  0  0
   -1.8762   -5.1800    0.0000 C    0  0  0  0  0  0  0  0  0  0  0  0
   -1.1618   -5.5925    0.0000 C    0  0  0  0  0  0  0  0  0  0  0  0
   -0.4473   -5.1800    0.0000 N    0  0  0  0  0  0  0  0  0  0  0  0
    0.2672   -5.5925    0.0000 C    0  0  0  0  0  0  0  0  0  0  0  0
    0.2672   -6.4175    0.0000 O    0  0  0  0  0  0  0  0  0  0  0  0
    0.9816   -5.1800    0.0000 C    0  0  0  0  0  0  0  0  0  0  0  0
    1.7353   -5.5156    0.0000 C    0  0  0  0  0  0  0  0  0  0  0  0
    2.2874   -4.9025    0.0000 C    0  0  0  0  0  0  0  0  0  0  0  0
    1.8749   -4.1880    0.0000 C    0  0  0  0  0  0  0  0  0  0  0  0
    1.0679   -4.3596    0.0000 N    0  0  0  0  0  0  0  0  0  0  0  0
    2.2874   -3.4736    0.0000 C    0  0  0  0  0  0  0  0  0  0  0  0
    3.1124   -3.4736    0.0000 C    0  0  0  0  0  0  0  0  0  0  0  0
    3.5249   -4.1880    0.0000 C    0  0  0  0  0  0  0  0  0  0  0  0
    4.3499   -4.1880    0.0000 Cl   0  0  0  0  0  0  0  0  0  0  0  0
    3.1124   -4.9025    0.0000 C    0  0  0  0  0  0  0  0  0  0  0  0
   -9.6122   -7.2990    0.0000 C    0  0  0  0  0  0  0  0  0  0  0  0
  -10.4372   -7.2990    0.0000 C    0  0  0  0  0  0  0  0  0  0  0  0
  1  2  1  0  0  0  0
  2  3  2  0  0  0  0
  3  4  1  0  0  0  0
  4  5  2  0  0  0  0
  5  6  1  0  0  0  0
  6  7  1  0  0  0  0
  7  8  2  0  0  0  0
  4  8  1  0  0  0  0
  7  9  1  0  0  0  0
  9 10  2  0  0  0  0
  9 11  1  0  0  0  0
 11 12  1  0  0  0  0
 12 13  1  0  0  0  0
 13 14  1  0  0  0  0
 14 15  1  0  0  0  0
 15 16  1  0  0  0  0
 16 17  1  0  0  0  0
 17 18  1  0  0  0  0
 18 19  1  0  0  0  0
 19 20  1  0  0  0  0
 20 21  1  0  0  0  0
 21 22  2  0  0  0  0
 21 23  1  0  0  0  0
 23 24  2  0  0  0  0
 24 25  1  0  0  0  0
 25 26  2  0  0  0  0
 26 27  1  0  0  0  0
 23 27  1  0  0  0  0
 26 28  1  0  0  0  0
 28 29  2  0  0  0  0
 29 30  1  0  0  0  0
 30 31  1  0  0  0  0
 30 32  2  0  0  0  0
 25 32  1  0  0  0  0
  5 33  1  0  0  0  0
 33 34  2  0  0  0  0
  2 34  1  0  0  0  0
M  END
> <DRUGBANK_ID>
DB02089

> <DRUG_GROUPS>
experimental

> <GENERIC_NAME>
CP-526423

> <SYNONYMS>


> <CHEMICAL_FORMULA>
C24H24Cl2N4O4

> <MOLECULAR_WEIGHT>
503.378

> <EXACT_MASS>
502.11746069

> <IUPAC_NAME>
5-chloro-N-[2-(2-{2-[(5-chloro-1H-indol-2-yl)formamido]ethoxy}ethoxy)ethyl]-1H-indole-2-carboxamide

> <IUPAC_TRADITIONAL_NAME>
5-chloro-N-[2-(2-{2-[(5-chloro-1H-indol-2-yl)formamido]ethoxy}ethoxy)ethyl]-1H-indole-2-carboxamide

> <INCHI_IDENTIFIER>
InChI=1S/C24H24Cl2N4O4/c25-17-1-3-19-15(11-17)13-21(29-19)23(31)27-5-7-33-9-10-34-8-6-28-24(32)22-14-16-12-18(26)2-4-20(16)30-22/h1-4,11-14,29-30H,5-10H2,(H,27,31)(H,28,32)

> <INCHI_KEY>
InChIKey=MWWXABBBAPKJDX-UHFFFAOYSA-N

> <SMILES>
ClC1=CC2=C(NC(=C2)C(=O)NCCOCCOCCNC(=O)C2=CC3=C(N2)C=CC(Cl)=C3)C=C1

> <JCHEM_ACCEPTOR_COUNT>
4

> <JCHEM_DONOR_COUNT>
4

> <JCHEM_ACIDIC_PKA>
11.95

> <JCHEM_BASIC_PKA>
-1.3

> <JCHEM_PHYSIOLOGICAL_CHARGE>
0

> <ALOGPS_LOGP>
3.67

> <JCHEM_LOGP>
3.08

> <ALOGPS_LOGS>
-5.3

> <JCHEM_POLARIZABILITY>
54.21

> <JCHEM_POLAR_SURFACE_AREA>
108.24

> <JCHEM_REFRACTIVITY>
131.72

> <JCHEM_ROTATABLE_BOND_COUNT>
11

> <ALOGPS_SOLUBILITY>
2.63e-03 g/l __ 

$$$$
