
  Mrv0541 02231216192D          

 16 17  0  0  1  0            999 V2000
    0.7145    6.7661    0.0000 N   0  0  0  0  0  0  0  0  0  0  0  0
    0.7145    5.9411    0.0000 C   0  0  0  0  0  0  0  0  0  0  0  0
    1.4289    5.5286    0.0000 N   0  0  0  0  0  0  0  0  0  0  0  0
    1.4289    4.7036    0.0000 C   0  0  0  0  0  0  0  0  0  0  0  0
    2.1434    4.2911    0.0000 O   0  0  0  0  0  0  0  0  0  0  0  0
    0.7145    4.2911    0.0000 N   0  0  0  0  0  0  0  0  0  0  0  0
    0.0000    4.7036    0.0000 C   0  0  0  0  0  0  0  0  0  0  0  0
    0.0000    5.5286    0.0000 C   0  0  0  0  0  0  0  0  0  0  0  0
    0.7145    3.4661    0.0000 C   0  0  1  0  0  0  0  0  0  0  0  0
    1.3819    2.9812    0.0000 C   0  0  0  0  0  0  0  0  0  0  0  0
    1.1270    2.1965    0.0000 C   0  0  1  0  0  0  0  0  0  0  0  0
    1.6119    1.5291    0.0000 O   0  0  0  0  0  0  0  0  0  0  0  0
    0.3020    2.1965    0.0000 C   0  0  2  0  0  0  0  0  0  0  0  0
   -0.1830    1.5291    0.0000 C   0  0  0  0  0  0  0  0  0  0  0  0
    0.1526    0.7754    0.0000 O   0  0  0  0  0  0  0  0  0  0  0  0
    0.0470    2.9812    0.0000 O   0  0  0  0  0  0  0  0  0  0  0  0
  1  2  1  0  0  0  0
  2  3  2  0  0  0  0
  3  4  1  0  0  0  0
  4  5  2  0  0  0  0
  4  6  1  0  0  0  0
  6  7  1  0  0  0  0
  7  8  2  0  0  0  0
  2  8  1  0  0  0  0
  9  6  1  1  0  0  0
  9 10  1  0  0  0  0
 10 11  1  0  0  0  0
 11 12  1  1  0  0  0
 11 13  1  0  0  0  0
 13 14  1  6  0  0  0
 14 15  1  0  0  0  0
 13 16  1  0  0  0  0
  9 16  1  0  0  0  0
M  END
> <DRUGBANK_ID>
DB02594

> <DRUG_GROUPS>
experimental

> <GENERIC_NAME>
2'-Deoxycytidine

> <CHEMICAL_FORMULA>
C9H13N3O4

> <MOLECULAR_WEIGHT>
227.2172

> <EXACT_MASS>
227.090605919

> <IUPAC_NAME>
4-amino-1-[(2R,4R,5S)-4-hydroxy-5-(hydroxymethyl)oxolan-2-yl]-1,2-dihydropyrimidin-2-one

> <IUPAC_TRADITIONAL_NAME>
2'-deoxycytidine

> <INCHI_IDENTIFIER>
InChI=1S/C9H13N3O4/c10-7-1-2-12(9(15)11-7)8-3-5(14)6(4-13)16-8/h1-2,5-6,8,13-14H,3-4H2,(H2,10,11,15)/t5-,6+,8-/m1/s1

> <INCHI_KEY>
InChIKey=CKTSBUTUHBMZGZ-GKROBHDKSA-N

> <SMILES>
NC1=NC(=O)N(C=C1)[C@H]1C[C@@H](O)[C@H](CO)O1

> <JCHEM_ACCEPTOR_COUNT>
6

> <JCHEM_DONOR_COUNT>
3

> <JCHEM_ACIDIC_PKA>
13.89

> <JCHEM_BASIC_PKA>
-0.0012

> <JCHEM_PHYSIOLOGICAL_CHARGE>
0

> <ALOGPS_LOGP>
-1.9

> <JCHEM_LOGP>
-1.9

> <ALOGPS_LOGS>
-1.2

> <JCHEM_POLARIZABILITY>
21.54

> <JCHEM_POLAR_SURFACE_AREA>
108.38

> <JCHEM_REFRACTIVITY>
53.03

> <JCHEM_ROTATABLE_BOND_COUNT>
2

> <ALOGPS_SOLUBILITY>
1.59e+01 g/l __ 

$$$$
