
  Mrv0541 02231216342D          

 20 20  0  0  1  0            999 V2000
    2.1434    1.2375    0.0000 O   0  0  0  0  0  0  0  0  0  0  0  0
    1.4289    0.8250    0.0000 C   0  0  1  0  0  0  0  0  0  0  0  0
    1.4289    0.0000    0.0000 C   0  0  2  0  0  0  0  0  0  0  0  0
    2.1434   -0.4125    0.0000 O   0  0  0  0  0  0  0  0  0  0  0  0
    0.7145   -0.4125    0.0000 C   0  0  1  0  0  0  0  0  0  0  0  0
    0.7145   -1.2375    0.0000 O   0  0  0  0  0  0  0  0  0  0  0  0
    1.4289   -1.6500    0.0000 P   0  0  0  0  0  0  0  0  0  0  0  0
    2.1434   -2.0625    0.0000 O   0  0  0  0  0  0  0  0  0  0  0  0
    1.8414   -0.9355    0.0000 O   0  0  0  0  0  0  0  0  0  0  0  0
    1.0164   -2.3645    0.0000 O   0  0  0  0  0  0  0  0  0  0  0  0
    0.0000    0.0000    0.0000 C   0  0  2  0  0  0  0  0  0  0  0  0
   -0.7145   -0.4125    0.0000 O   0  0  0  0  0  0  0  0  0  0  0  0
    0.0000    0.8250    0.0000 C   0  0  1  0  0  0  0  0  0  0  0  0
   -0.7145    1.2375    0.0000 O   0  0  0  0  0  0  0  0  0  0  0  0
   -1.4289    0.8250    0.0000 P   0  0  0  0  0  0  0  0  0  0  0  0
   -2.1434    0.4125    0.0000 O   0  0  0  0  0  0  0  0  0  0  0  0
   -1.8414    1.5395    0.0000 O   0  0  0  0  0  0  0  0  0  0  0  0
   -1.0164    0.1105    0.0000 O   0  0  0  0  0  0  0  0  0  0  0  0
    0.7145    1.2375    0.0000 C   0  0  2  0  0  0  0  0  0  0  0  0
    0.7145    2.0625    0.0000 O   0  0  0  0  0  0  0  0  0  0  0  0
  2  1  1  1  0  0  0
  2  3  1  0  0  0  0
  3  4  1  6  0  0  0
  3  5  1  0  0  0  0
  5  6  1  1  0  0  0
  6  7  1  0  0  0  0
  7  8  1  0  0  0  0
  7  9  1  0  0  0  0
  7 10  2  0  0  0  0
  5 11  1  0  0  0  0
 11 12  1  6  0  0  0
 11 13  1  0  0  0  0
 13 14  1  1  0  0  0
 14 15  1  0  0  0  0
 15 16  1  0  0  0  0
 15 17  1  0  0  0  0
 15 18  2  0  0  0  0
 13 19  1  0  0  0  0
  2 19  1  0  0  0  0
 19 20  1  6  0  0  0
M  END
> <DRUGBANK_ID>
DB02942

> <DRUG_GROUPS>
experimental

> <GENERIC_NAME>
Inositol 1,3-Bisphosphate

> <CHEMICAL_FORMULA>
C6H14O12P2

> <MOLECULAR_WEIGHT>
340.1157

> <EXACT_MASS>
339.996048936

> <IUPAC_NAME>
{[(1R,2S,3s,4R,5S,6r)-2,3,4,6-tetrahydroxy-5-(phosphonooxy)cyclohexyl]oxy}phosphonic acid

> <IUPAC_TRADITIONAL_NAME>
[(1R,2S,3s,4R,5S,6r)-2,3,4,6-tetrahydroxy-5-(phosphonooxy)cyclohexyl]oxyphosphonic acid

> <INCHI_IDENTIFIER>
InChI=1S/C6H14O12P2/c7-1-2(8)5(17-19(11,12)13)4(10)6(3(1)9)18-20(14,15)16/h1-10H,(H2,11,12,13)(H2,14,15,16)/t1-,2-,3+,4-,5+,6-

> <INCHI_KEY>
InChIKey=PUVHMWJJTITUGO-KNBDEEDGSA-N

> <SMILES>
O[C@H]1[C@H](O)[C@@H](OP(O)(O)=O)[C@H](O)[C@@H](OP(O)(O)=O)[C@@H]1O

> <JCHEM_ACCEPTOR_COUNT>
10

> <JCHEM_DONOR_COUNT>
8

> <JCHEM_ACIDIC_PKA>
0.86

> <JCHEM_BASIC_PKA>
-3.6

> <JCHEM_PHYSIOLOGICAL_CHARGE>
-4

> <ALOGPS_LOGP>
-1.3

> <JCHEM_LOGP>
-4

> <ALOGPS_LOGS>
-1.1

> <JCHEM_POLARIZABILITY>
24.91

> <JCHEM_POLAR_SURFACE_AREA>
214.44

> <JCHEM_REFRACTIVITY>
57.52

> <JCHEM_ROTATABLE_BOND_COUNT>
4

> <ALOGPS_SOLUBILITY>
2.39e+01 g/l __ 

$$$$
