
  Mrv0541 02231216242D          

 46 49  0  0  1  0            999 V2000
    5.7158   -4.9500    0.0000 O   0  0  0  0  0  0  0  0  0  0  0  0
    5.0013   -5.3625    0.0000 C   0  0  0  0  0  0  0  0  0  0  0  0
    5.0013   -6.1875    0.0000 C   0  0  2  0  0  0  0  0  0  0  0  0
    4.2868   -6.6000    0.0000 O   0  0  0  0  0  0  0  0  0  0  0  0
    4.2868   -7.4250    0.0000 C   0  0  1  0  0  0  0  0  0  0  0  0
    3.5724   -7.8375    0.0000 O   0  0  0  0  0  0  0  0  0  0  0  0
    2.8579   -7.4250    0.0000 C   0  0  2  0  0  0  0  0  0  0  0  0
    2.1434   -7.8375    0.0000 C   0  0  2  0  0  0  0  0  0  0  0  0
    2.1434   -8.6625    0.0000 C   0  0  0  0  0  0  0  0  0  0  0  0
    1.4289   -9.0750    0.0000 O   0  0  0  0  0  0  0  0  0  0  0  0
    1.4289   -7.4250    0.0000 O   0  0  0  0  0  0  0  0  0  0  0  0
    1.4289   -6.6000    0.0000 C   0  0  1  0  0  0  0  0  0  0  0  0
    0.7145   -6.1875    0.0000 O   0  0  0  0  0  0  0  0  0  0  0  0
    0.0000   -6.6000    0.0000 C   0  0  2  0  0  0  0  0  0  0  0  0
   -0.7145   -6.1875    0.0000 C   0  0  2  0  0  0  0  0  0  0  0  0
   -0.7145   -5.3625    0.0000 C   0  0  0  0  0  0  0  0  0  0  0  0
   -1.4289   -4.9500    0.0000 O   0  0  0  0  0  0  0  0  0  0  0  0
   -1.4289   -6.6000    0.0000 O   0  0  0  0  0  0  0  0  0  0  0  0
   -1.4289   -7.4250    0.0000 C   0  0  1  0  0  0  0  0  0  0  0  0
   -2.1434   -7.8375    0.0000 O   0  0  0  0  0  0  0  0  0  0  0  0
   -2.8579   -7.4250    0.0000 C   0  0  2  0  0  0  0  0  0  0  0  0
   -3.5724   -7.8375    0.0000 C   0  0  2  0  0  0  0  0  0  0  0  0
   -3.5724   -8.6625    0.0000 C   0  0  0  0  0  0  0  0  0  0  0  0
   -4.2868   -9.0750    0.0000 O   0  0  0  0  0  0  0  0  0  0  0  0
   -4.2868   -7.4250    0.0000 O   0  0  0  0  0  0  0  0  0  0  0  0
   -4.2868   -6.6000    0.0000 C   0  0  0  0  0  0  0  0  0  0  0  0
   -5.0993   -6.7433    0.0000 O   0  0  0  0  0  0  0  0  0  0  0  0
   -4.5690   -5.8248    0.0000 O   0  0  0  0  0  0  0  0  0  0  0  0
   -3.5724   -6.1875    0.0000 C   0  0  2  0  0  0  0  0  0  0  0  0
   -3.5724   -5.3625    0.0000 O   0  0  0  0  0  0  0  0  0  0  0  0
   -2.8579   -6.6000    0.0000 C   0  0  1  0  0  0  0  0  0  0  0  0
   -2.1434   -6.1875    0.0000 O   0  0  0  0  0  0  0  0  0  0  0  0
   -0.7145   -7.8375    0.0000 C   0  0  2  0  0  0  0  0  0  0  0  0
   -0.7145   -8.6625    0.0000 O   0  0  0  0  0  0  0  0  0  0  0  0
    0.0000   -7.4250    0.0000 C   0  0  1  0  0  0  0  0  0  0  0  0
    0.7145   -7.8375    0.0000 O   0  0  0  0  0  0  0  0  0  0  0  0
    2.1434   -6.1875    0.0000 C   0  0  2  0  0  0  0  0  0  0  0  0
    2.1434   -5.3625    0.0000 O   0  0  0  0  0  0  0  0  0  0  0  0
    2.8579   -6.6000    0.0000 C   0  0  1  0  0  0  0  0  0  0  0  0
    3.5724   -6.1875    0.0000 O   0  0  0  0  0  0  0  0  0  0  0  0
    5.0013   -7.8375    0.0000 C   0  0  1  0  0  0  0  0  0  0  0  0
    5.0013   -8.6625    0.0000 O   0  0  0  0  0  0  0  0  0  0  0  0
    5.7158   -7.4250    0.0000 C   0  0  2  0  0  0  0  0  0  0  0  0
    6.4302   -7.8375    0.0000 O   0  0  0  0  0  0  0  0  0  0  0  0
    5.7158   -6.6000    0.0000 C   0  0  1  0  0  0  0  0  0  0  0  0
    6.4302   -6.1875    0.0000 O   0  0  0  0  0  0  0  0  0  0  0  0
  1  2  1  0  0  0  0
  3  2  1  1  0  0  0
  3  4  1  0  0  0  0
  4  5  1  0  0  0  0
  5  6  1  6  0  0  0
  7  6  1  6  0  0  0
  7  8  1  0  0  0  0
  8  9  1  6  0  0  0
  9 10  1  0  0  0  0
  8 11  1  0  0  0  0
 11 12  1  0  0  0  0
 12 13  1  1  0  0  0
 14 13  1  1  0  0  0
 14 15  1  0  0  0  0
 15 16  1  1  0  0  0
 16 17  1  0  0  0  0
 15 18  1  0  0  0  0
 18 19  1  0  0  0  0
 19 20  1  6  0  0  0
 21 20  1  6  0  0  0
 21 22  1  0  0  0  0
 22 23  1  6  0  0  0
 23 24  1  0  0  0  0
 22 25  1  0  0  0  0
 25 26  1  0  0  0  0
 26 27  1  0  0  0  0
 26 28  1  0  0  0  0
 26 29  1  0  0  0  0
 29 30  1  6  0  0  0
 29 31  1  0  0  0  0
 21 31  1  0  0  0  0
 31 32  1  1  0  0  0
 19 33  1  0  0  0  0
 33 34  1  1  0  0  0
 33 35  1  0  0  0  0
 14 35  1  0  0  0  0
 35 36  1  6  0  0  0
 12 37  1  0  0  0  0
 37 38  1  6  0  0  0
 37 39  1  0  0  0  0
  7 39  1  0  0  0  0
 39 40  1  1  0  0  0
  5 41  1  0  0  0  0
 41 42  1  6  0  0  0
 41 43  1  0  0  0  0
 43 44  1  1  0  0  0
 43 45  1  0  0  0  0
  3 45  1  0  0  0  0
 45 46  1  6  0  0  0
M  END
> <DRUGBANK_ID>
DB02717

> <DRUG_GROUPS>
experimental

> <GENERIC_NAME>
Cellotetraose

> <CHEMICAL_FORMULA>
C24H42O22

> <MOLECULAR_WEIGHT>
682.5771

> <EXACT_MASS>
682.216773028

> <IUPAC_NAME>
(3R,4R,5S,6S)-5-{[(2S,3R,4R,5S,6S)-5-{[(2S,3R,4R,5S,6S)-3,4-dihydroxy-6-(hydroxymethyl)-5-{[(2S,3S,4R,5R,6S)-3,4,5-trihydroxy-6-(hydroxymethyl)oxan-2-yl]oxy}oxan-2-yl]oxy}-3,4-dihydroxy-6-(hydroxymethyl)oxan-2-yl]oxy}-6-(hydroxymethyl)oxane-2,2,3,4-tetrol

> <IUPAC_TRADITIONAL_NAME>
cellotetraose

> <INCHI_IDENTIFIER>
InChI=1S/C24H42O22/c25-1-5-9(29)10(30)13(33)21(40-5)43-17-6(2-26)41-22(14(34)11(17)31)44-18-7(3-27)42-23(15(35)12(18)32)45-19-8(4-28)46-24(38,39)20(37)16(19)36/h5-23,25-39H,1-4H2/t5-,6-,7-,8-,9-,10+,11+,12+,13-,14+,15+,16-,17+,18+,19+,20+,21-,22-,23-/m0/s1

> <INCHI_KEY>
InChIKey=YQOYPGXRGJBUOY-FUTCZDBGSA-N

> <SMILES>
OC[C@@H]1O[C@@H](O[C@H]2[C@H](O)[C@@H](O)[C@H](O[C@H]3[C@H](O)[C@@H](O)[C@H](O[C@H]4[C@H](O)[C@@H](O)C(O)(O)O[C@H]4CO)O[C@H]3CO)O[C@H]2CO)[C@@H](O)[C@H](O)[C@H]1O

> <JCHEM_ACCEPTOR_COUNT>
22

> <JCHEM_DONOR_COUNT>
15

> <JCHEM_ACIDIC_PKA>
10.19

> <JCHEM_BASIC_PKA>
-3.7

> <JCHEM_PHYSIOLOGICAL_CHARGE>
0

> <ALOGPS_LOGP>
-2.6

> <JCHEM_LOGP>
-8.6

> <ALOGPS_LOGS>
-0.26

> <JCHEM_POLARIZABILITY>
62.77

> <JCHEM_POLAR_SURFACE_AREA>
368.06

> <JCHEM_REFRACTIVITY>
135.51

> <JCHEM_ROTATABLE_BOND_COUNT>
10

> <ALOGPS_SOLUBILITY>
3.72e+02 g/l __ 

$$$$
