
  Mrv0541 02231216222D          

 91101  0  0  1  0            999 V2000
   -0.4856   14.6887    0.0000 C    0  0  0  0  0  0  0  0  0  0  0  0
    0.2797   14.3805    0.0000 O    0  0  0  0  0  0  0  0  0  0  0  0
    0.3954   13.5637    0.0000 C    0  0  0  0  0  0  0  0  0  0  0  0
    1.1607   13.2555    0.0000 C    0  0  0  0  0  0  0  0  0  0  0  0
    1.2765   12.4387    0.0000 C    0  0  0  0  0  0  0  0  0  0  0  0
    0.6270   11.9300    0.0000 C    0  0  0  0  0  0  0  0  0  0  0  0
    0.5704   11.1070    0.0000 N    0  0  0  0  0  0  0  0  0  0  0  0
   -0.2299   10.9064    0.0000 C    0  0  0  0  0  0  0  0  0  0  0  0
   -0.6679   11.6056    0.0000 N    0  0  0  0  0  0  0  0  0  0  0  0
   -0.1383   12.2382    0.0000 C    0  0  0  0  0  0  0  0  0  0  0  0
   -0.2541   13.0550    0.0000 C    0  0  0  0  0  0  0  0  0  0  0  0
    1.2030   10.5774    0.0000 C    0  0  2  0  0  0  0  0  0  0  0  0
    2.0032   10.7779    0.0000 O    0  0  0  0  0  0  0  0  0  0  0  0
    2.4412   10.0788    0.0000 C    0  0  1  0  0  0  0  0  0  0  0  0
    3.2643   10.0222    0.0000 C    0  0  0  0  0  0  0  0  0  0  0  0
    3.6268    9.2811    0.0000 O    0  0  0  0  0  0  0  0  0  0  0  0
    1.9117    9.4462    0.0000 C    0  0  2  0  0  0  0  0  0  0  0  0
    2.1122    8.6459    0.0000 O    0  0  0  0  0  0  0  0  0  0  0  0
    1.5194    8.0721    0.0000 P    0  0  1  0  0  0  0  0  0  0  0  0
    0.9456    8.6649    0.0000 O    0  5  0  0  0  0  0  0  0  0  0  0
    2.0932    7.4793    0.0000 O    0  0  0  0  0  0  0  0  0  0  0  0
    0.9266    7.4984    0.0000 O    0  0  0  0  0  0  0  0  0  0  0  0
    1.1271    6.6981    0.0000 C    0  0  2  0  0  0  0  0  0  0  0  0
    1.9204    6.4716    0.0000 C    0  0  0  0  0  0  0  0  0  0  0  0
    0.5343    6.1243    0.0000 C    0  0  0  0  0  0  0  0  0  0  0  0
    0.7349    5.3240    0.0000 N    0  0  0  0  0  0  0  0  0  0  0  0
    0.1421    4.7503    0.0000 C    0  0  0  0  0  0  0  0  0  0  0  0
   -0.6512    4.9767    0.0000 O    0  0  0  0  0  0  0  0  0  0  0  0
    0.3426    3.9500    0.0000 C    0  0  0  0  0  0  0  0  0  0  0  0
   -0.2502    3.3762    0.0000 C    0  0  0  0  0  0  0  0  0  0  0  0
   -0.0497    2.5760    0.0000 C    0  0  2  0  0  0  0  0  0  0  0  0
    0.7252    2.8590    0.0000 C    0  0  0  0  0  0  0  0  0  0  0  0
   -0.8665    2.4602    0.0000 C    0  0  1  0  0  0  0  0  0  0  0  0
   -1.4403    3.0530    0.0000 C    0  0  0  0  0  0  0  0  0  0  0  0
   -2.2406    2.8525    0.0000 C    0  0  0  0  0  0  0  0  0  0  0  0
   -2.4670    2.0592    0.0000 N    0  0  0  0  0  0  0  0  0  0  0  0
   -2.8144    3.4452    0.0000 O    0  0  0  0  0  0  0  0  0  0  0  0
   -1.0088    1.6476    0.0000 C    0  0  0  0  0  0  0  0  0  0  0  0
   -0.2800    1.2611    0.0000 N    0  3  0  0  0  0  0  0  0  0  0  0
    0.3128    1.8349    0.0000 C    0  0  0  0  0  0  0  0  0  0  0  0
    1.3180    1.4876    0.0000 C    0  0  0  0  0  0  0  0  0  0  0  0
    1.7971    2.1592    0.0000 C    0  0  0  0  0  0  0  0  0  0  0  0
    1.8267    0.8381    0.0000 C    0  0  0  0  0  0  0  0  0  0  0  0
    1.3662    0.1536    0.0000 N    0  3  0  0  0  0  0  0  0  0  0  0
    1.8748   -0.4960    0.0000 C    0  0  0  0  0  0  0  0  0  0  0  0
    1.4244   -1.4593    0.0000 C    0  0  0  0  0  0  0  0  0  0  0  0
    0.7252   -1.8973    0.0000 C    0  0  0  0  0  0  0  0  0  0  0  0
    0.0926   -1.3678    0.0000 N    0  3  0  0  0  0  0  0  0  0  0  0
   -0.6065   -1.8058    0.0000 C    0  0  0  0  0  0  0  0  0  0  0  0
   -1.5175   -1.2571    0.0000 C    0  0  0  0  0  0  0  0  0  0  0  0
   -2.1257   -1.8145    0.0000 C    0  0  0  0  0  0  0  0  0  0  0  0
   -1.8800   -0.5160    0.0000 C    0  0  0  0  0  0  0  0  0  0  0  0
   -1.2872    0.0578    0.0000 N    0  3  0  0  0  0  0  0  0  0  0  0
   -1.6498    0.7989    0.0000 C    0  0  1  0  0  0  0  0  0  0  0  0
   -2.0685    1.5097    0.0000 C    0  0  0  0  0  0  0  0  0  0  0  0
   -2.4666    0.6831    0.0000 C    0  0  2  0  0  0  0  0  0  0  0  0
   -2.4964    1.5076    0.0000 C    0  0  0  0  0  0  0  0  0  0  0  0
   -3.2897    0.7397    0.0000 C    0  0  0  0  0  0  0  0  0  0  0  0
   -3.6522    1.4808    0.0000 C    0  0  0  0  0  0  0  0  0  0  0  0
   -4.4752    1.5374    0.0000 N    0  0  0  0  0  0  0  0  0  0  0  0
   -3.1916    2.1653    0.0000 O    0  0  0  0  0  0  0  0  0  0  0  0
   -2.6089   -0.1295    0.0000 C    0  0  2  0  0  0  0  0  0  0  0  0
   -3.3500   -0.4920    0.0000 C    0  0  0  0  0  0  0  0  0  0  0  0
   -3.4066   -1.3151    0.0000 C    0  0  0  0  0  0  0  0  0  0  0  0
   -4.1477   -1.6776    0.0000 C    0  0  0  0  0  0  0  0  0  0  0  0
   -4.8322   -1.2171    0.0000 N    0  0  0  0  0  0  0  0  0  0  0  0
   -4.2043   -2.5007    0.0000 O    0  0  0  0  0  0  0  0  0  0  0  0
   -0.0271    0.0262    0.0000 Co   0  0  2  0  0  0  0  0  0  0  0  0
   -0.4060   -2.6060    0.0000 C    0  0  2  0  0  0  0  0  0  0  0  0
   -1.2228   -2.7218    0.0000 C    0  0  0  0  0  0  0  0  0  0  0  0
   -0.3762   -3.4305    0.0000 C    0  0  0  0  0  0  0  0  0  0  0  0
   -1.0754   -3.8685    0.0000 C    0  0  0  0  0  0  0  0  0  0  0  0
   -1.0456   -4.6930    0.0000 N    0  0  0  0  0  0  0  0  0  0  0  0
   -1.8042   -3.4820    0.0000 O    0  0  0  0  0  0  0  0  0  0  0  0
    0.4171   -2.6626    0.0000 C    0  0  2  0  0  0  0  0  0  0  0  0
    0.8551   -3.3617    0.0000 C    0  0  0  0  0  0  0  0  0  0  0  0
    1.6795   -3.3320    0.0000 C    0  0  0  0  0  0  0  0  0  0  0  0
    2.1175   -4.0311    0.0000 C    0  0  0  0  0  0  0  0  0  0  0  0
    2.9420   -4.0014    0.0000 N    0  0  0  0  0  0  0  0  0  0  0  0
    1.7311   -4.7600    0.0000 O    0  0  0  0  0  0  0  0  0  0  0  0
    2.6498   -0.2129    0.0000 C    0  0  0  0  0  0  0  0  0  0  0  0
    3.4666   -0.0971    0.0000 C    0  0  0  0  0  0  0  0  0  0  0  0
    2.8503   -1.0132    0.0000 C    0  0  0  0  0  0  0  0  0  0  0  0
    2.6200    0.6116    0.0000 C    0  0  2  0  0  0  0  0  0  0  0  0
    3.2695    1.1203    0.0000 C    0  0  0  0  0  0  0  0  0  0  0  0
    4.0348    0.8121    0.0000 C    0  0  0  0  0  0  0  0  0  0  0  0
    4.6843    1.3208    0.0000 C    0  0  0  0  0  0  0  0  0  0  0  0
    4.5686    2.1376    0.0000 N    0  0  0  0  0  0  0  0  0  0  0  0
    5.4496    1.0126    0.0000 O    0  0  0  0  0  0  0  0  0  0  0  0
    1.1464    9.7543    0.0000 C    0  0  1  0  0  0  0  0  0  0  0  0
    0.4473    9.3163    0.0000 O    0  0  0  0  0  0  0  0  0  0  0  0
  1  2  1  0  0  0  0
  2  3  1  0  0  0  0
  3  4  2  0  0  0  0
  4  5  1  0  0  0  0
  5  6  2  0  0  0  0
  6  7  1  0  0  0  0
  7  8  1  0  0  0  0
  8  9  2  0  0  0  0
  9 10  1  0  0  0  0
  6 10  1  0  0  0  0
 10 11  2  0  0  0  0
  3 11  1  0  0  0  0
 12  7  1  6  0  0  0
 12 13  1  0  0  0  0
 13 14  1  0  0  0  0
 14 15  1  1  0  0  0
 15 16  1  0  0  0  0
 14 17  1  0  0  0  0
 17 18  1  6  0  0  0
 19 18  1  1  0  0  0
 19 20  1  6  0  0  0
 19 21  2  0  0  0  0
 19 22  1  0  0  0  0
 22 23  1  0  0  0  0
 23 24  1  6  0  0  0
 23 25  1  0  0  0  0
 25 26  1  0  0  0  0
 26 27  1  0  0  0  0
 27 28  2  0  0  0  0
 27 29  1  0  0  0  0
 29 30  1  0  0  0  0
 31 30  1  1  0  0  0
 31 32  1  6  0  0  0
 31 33  1  0  0  0  0
 33 34  1  6  0  0  0
 34 35  1  0  0  0  0
 35 36  1  0  0  0  0
 35 37  2  0  0  0  0
 33 38  1  0  0  0  0
 38 39  2  0  0  0  0
 39 40  1  0  0  0  0
 31 40  1  0  0  0  0
 40 41  2  0  0  0  0
 41 42  1  0  0  0  0
 41 43  1  0  0  0  0
 43 44  2  0  0  0  0
 44 45  1  0  0  0  0
 45 46  2  0  0  0  0
 46 47  1  0  0  0  0
 47 48  2  0  0  0  0
 48 49  1  0  0  0  0
 49 50  2  0  0  0  0
 50 51  1  0  0  0  0
 50 52  1  0  0  0  0
 52 53  2  0  0  0  0
 53 54  1  0  0  0  0
 38 54  1  0  0  0  0
 54 55  1  1  0  0  0
 54 56  1  0  0  0  0
 56 57  1  6  0  0  0
 56 58  1  1  0  0  0
 58 59  1  0  0  0  0
 59 60  1  0  0  0  0
 59 61  2  0  0  0  0
 56 62  1  0  0  0  0
 52 62  1  0  0  0  0
 62 63  1  1  0  0  0
 63 64  1  0  0  0  0
 64 65  1  0  0  0  0
 65 66  1  0  0  0  0
 65 67  2  0  0  0  0
 68 53  1  1  0  0  0
 39 68  1  0  0  0  0
 44 68  1  0  0  0  0
 48 68  1  0  0  0  0
 49 69  1  0  0  0  0
 69 70  1  6  0  0  0
 69 71  1  1  0  0  0
 71 72  1  0  0  0  0
 72 73  1  0  0  0  0
 72 74  2  0  0  0  0
 69 75  1  0  0  0  0
 47 75  1  0  0  0  0
 75 76  1  1  0  0  0
 76 77  1  0  0  0  0
 77 78  1  0  0  0  0
 78 79  1  0  0  0  0
 78 80  2  0  0  0  0
 45 81  1  0  0  0  0
 81 82  1  0  0  0  0
 81 83  1  0  0  0  0
 81 84  1  0  0  0  0
 43 84  1  0  0  0  0
 84 85  1  1  0  0  0
 85 86  1  0  0  0  0
 86 87  1  0  0  0  0
 87 88  1  0  0  0  0
 87 89  2  0  0  0  0
 17 90  1  0  0  0  0
 12 90  1  0  0  0  0
 90 91  1  1  0  0  0
M  END
> <DRUGBANK_ID>
DB02667

> <DRUG_GROUPS>
experimental

> <GENERIC_NAME>
Factor IIIm

> <CHEMICAL_FORMULA>
C61H85CoN13O15P

> <MOLECULAR_WEIGHT>
1330.3127

> <EXACT_MASS>
1329.535770821

> <IUPAC_NAME>
(1S,3R,4R,5S,9R,10S,15S,19R,20R)-5,10,15-tris(2-carbamoylethyl)-4,9,20-tris(carbamoylmethyl)-19-(2-{[(2R)-2-{[(S)-((2S,3R,4R,5R)-4-hydroxy-2-(hydroxymethyl)-5-(5-methoxy-1H-1,3-benzodiazol-1-yl)oxolan-3-yl phosphonato)]oxy}propyl]carbamoyl}ethyl)-3,4,7,9,14,14,17,19-octamethyl-2$l^{5},22$l^{5},23$l^{5},24$l^{5}-tetraaza-1-cobaltaoctacyclo[11.9.1.1^{1,8}.0^{2,6}.0^{3,21}.0^{16,23}.0^{18,22}.0^{11,24}]tetracosa-2(6),7,11(24),12,16(23),17,21-heptaene-2,22,23,24-tetrakis(ylium)

> <IUPAC_TRADITIONAL_NAME>
factor iiim

> <INCHI_IDENTIFIER>
InChI=1S/C61H86N13O15P.Co/c1-29(88-90(84,85)89-52-40(27-75)87-56(51(52)83)74-28-69-38-21-32(86-10)11-15-39(38)74)26-68-48(82)19-20-58(6)36(22-45(65)79)55-61(9)60(8,25-47(67)81)35(14-18-44(64)78)50(73-61)31(3)54-59(7,24-46(66)80)33(12-16-42(62)76)37(70-54)23-41-57(4,5)34(13-17-43(63)77)49(71-41)30(2)53(58)72-55;/h11,15,21,23,28-29,33-36,40,51-52,56,75,83H,12-14,16-20,22,24-27H2,1-10H3,(H2,62,76)(H2,63,77)(H2,64,78)(H2,65,79)(H2,66,80)(H2,67,81)(H,68,82)(H,84,85);/q;+4/p-1/b41-23-,53-30-,54-31-;/t29-,33-,34-,35-,36+,40+,51-,52+,56-,58-,59-,60-,61+;/m1./s1

> <INCHI_KEY>
InChIKey=VWSQGEASMOQZCI-XJNQKQKZSA-M

> <SMILES>
COC1=CC=C2N(C=NC2=C1)[C@@H]1O[C@@H](CO)[C@H](O[P@@]([O-])(=O)O[C@H](C)CNC(=O)CC[C@]2(C)[C@@H](CC(N)=O)C3=[N+]4C2=C(C)C2=[N+]5C(=CC6=[N+]7C(=C(C)C8=[N+]([C@]3(C)[C@](C)(CC(N)=O)[C@@H]8CCC(N)=O)[Co@@]457)[C@](C)(CC(N)=O)[C@@H]6CCC(N)=O)C(C)(C)[C@@H]2CCC(N)=O)[C@H]1O

> <JCHEM_ACCEPTOR_COUNT>
14

> <JCHEM_DONOR_COUNT>
9

> <JCHEM_ACIDIC_PKA>
1.85

> <JCHEM_BASIC_PKA>
5.82

> <JCHEM_PHYSIOLOGICAL_CHARGE>
3

> <ALOGPS_LOGP>
0.38

> <JCHEM_LOGP>
-15

> <ALOGPS_LOGS>
-5.9

> <JCHEM_POLARIZABILITY>
137.91

> <JCHEM_POLAR_SURFACE_AREA>
435.01

> <JCHEM_REFRACTIVITY>
335.56

> <JCHEM_ROTATABLE_BOND_COUNT>
27

> <ALOGPS_SOLUBILITY>
1.72e-03 g/l __ 

$$$$
