
  Mrv0541 02231216232D          

 56 59  0  0  1  0            999 V2000
    4.3042   -6.8223    0.0000 C   0  0  0  0  0  0  0  0  0  0  0  0
    5.0742   -7.1186    0.0000 N   0  0  0  0  0  0  0  0  0  0  0  0
    5.7158   -6.6000    0.0000 C   0  0  0  0  0  0  0  0  0  0  0  0
    5.5874   -5.7850    0.0000 O   0  0  0  0  0  0  0  0  0  0  0  0
    6.4857   -6.8963    0.0000 C   0  0  2  0  0  0  0  0  0  0  0  0
    7.1273   -6.3777    0.0000 N   0  0  0  0  0  0  0  0  0  0  0  0
    7.8973   -6.6741    0.0000 C   0  0  0  0  0  0  0  0  0  0  0  0
    8.0256   -7.4890    0.0000 O   0  0  0  0  0  0  0  0  0  0  0  0
    8.5389   -6.1555    0.0000 C   0  0  1  0  0  0  0  0  0  0  0  0
    8.4105   -5.3405    0.0000 O   0  0  0  0  0  0  0  0  0  0  0  0
    7.6406   -5.0442    0.0000 C   0  0  0  0  0  0  0  0  0  0  0  0
    7.5123   -4.2292    0.0000 C   0  0  0  0  0  0  0  0  0  0  0  0
    6.7423   -3.9329    0.0000 C   0  0  0  0  0  0  0  0  0  0  0  0
    6.6140   -3.1179    0.0000 C   0  0  0  0  0  0  0  0  0  0  0  0
    7.2556   -2.5993    0.0000 C   0  0  0  0  0  0  0  0  0  0  0  0
    8.0256   -2.8956    0.0000 C   0  0  0  0  0  0  0  0  0  0  0  0
    8.1539   -3.7106    0.0000 C   0  0  0  0  0  0  0  0  0  0  0  0
    7.1273   -1.7843    0.0000 C   0  0  0  0  0  0  0  0  0  0  0  0
    6.3574   -1.4880    0.0000 C   0  0  0  0  0  0  0  0  0  0  0  0
    6.2291   -0.6730    0.0000 C   0  0  0  0  0  0  0  0  0  0  0  0
    6.8707   -0.1544    0.0000 C   0  0  0  0  0  0  0  0  0  0  0  0
    7.6406   -0.4508    0.0000 N   0  0  0  0  0  0  0  0  0  0  0  0
    7.7689   -1.2657    0.0000 C   0  0  0  0  0  0  0  0  0  0  0  0
    9.3088   -6.4518    0.0000 C   0  0  2  0  0  0  0  0  0  0  0  0
    9.9504   -5.9332    0.0000 O   0  0  0  0  0  0  0  0  0  0  0  0
    9.4371   -7.2668    0.0000 C   0  0  1  0  0  0  0  0  0  0  0  0
    8.7955   -7.7854    0.0000 O   0  0  0  0  0  0  0  0  0  0  0  0
   10.2071   -7.5631    0.0000 C   0  0  2  0  0  0  0  0  0  0  0  0
   10.3354   -8.3781    0.0000 O   0  0  0  0  0  0  0  0  0  0  0  0
   11.1053   -8.6744    0.0000 C   0  0  0  0  0  0  0  0  0  0  0  0
   11.2336   -9.4894    0.0000 C   0  0  0  0  0  0  0  0  0  0  0  0
   12.0036   -9.7857    0.0000 C   0  0  0  0  0  0  0  0  0  0  0  0
   12.1319  -10.6007    0.0000 C   0  0  0  0  0  0  0  0  0  0  0  0
   11.4903  -11.1193    0.0000 C   0  0  0  0  0  0  0  0  0  0  0  0
   10.7204  -10.8230    0.0000 C   0  0  0  0  0  0  0  0  0  0  0  0
   10.5920  -10.0080    0.0000 C   0  0  0  0  0  0  0  0  0  0  0  0
   11.6186  -11.9343    0.0000 C   0  0  0  0  0  0  0  0  0  0  0  0
   12.3886  -12.2306    0.0000 C   0  0  0  0  0  0  0  0  0  0  0  0
   12.5169  -13.0456    0.0000 C   0  0  0  0  0  0  0  0  0  0  0  0
   11.8753  -13.5642    0.0000 C   0  0  0  0  0  0  0  0  0  0  0  0
   11.1053  -13.2678    0.0000 N   0  0  0  0  0  0  0  0  0  0  0  0
   10.9770  -12.4529    0.0000 C   0  0  0  0  0  0  0  0  0  0  0  0
   10.8487   -7.0445    0.0000 C   0  0  0  0  0  0  0  0  0  0  0  0
   10.7204   -6.2296    0.0000 O   0  0  0  0  0  0  0  0  0  0  0  0
   11.6186   -7.3409    0.0000 N   0  0  0  0  0  0  0  0  0  0  0  0
   12.2602   -6.8223    0.0000 C   0  0  2  0  0  0  0  0  0  0  0  0
   12.1319   -6.0073    0.0000 C   0  0  0  0  0  0  0  0  0  0  0  0
   12.7735   -5.4887    0.0000 C   0  0  0  0  0  0  0  0  0  0  0  0
   11.3620   -5.7110    0.0000 C   0  0  0  0  0  0  0  0  0  0  0  0
   13.0302   -7.1186    0.0000 C   0  0  0  0  0  0  0  0  0  0  0  0
   13.1585   -7.9336    0.0000 O   0  0  0  0  0  0  0  0  0  0  0  0
   13.6718   -6.6000    0.0000 N   0  0  0  0  0  0  0  0  0  0  0  0
   14.4417   -6.8963    0.0000 C   0  0  0  0  0  0  0  0  0  0  0  0
    6.6140   -7.7113    0.0000 C   0  0  0  0  0  0  0  0  0  0  0  0
    7.3840   -8.0077    0.0000 C   0  0  0  0  0  0  0  0  0  0  0  0
    5.9724   -8.2299    0.0000 C   0  0  0  0  0  0  0  0  0  0  0  0
  1  2  1  0  0  0  0
  2  3  1  0  0  0  0
  3  4  2  0  0  0  0
  3  5  1  0  0  0  0
  5  6  1  6  0  0  0
  6  7  1  0  0  0  0
  7  8  2  0  0  0  0
  7  9  1  0  0  0  0
  9 10  1  1  0  0  0
 10 11  1  0  0  0  0
 11 12  1  0  0  0  0
 12 13  2  0  0  0  0
 13 14  1  0  0  0  0
 14 15  2  0  0  0  0
 15 16  1  0  0  0  0
 16 17  2  0  0  0  0
 12 17  1  0  0  0  0
 15 18  1  0  0  0  0
 18 19  2  0  0  0  0
 19 20  1  0  0  0  0
 20 21  2  0  0  0  0
 21 22  1  0  0  0  0
 22 23  2  0  0  0  0
 18 23  1  0  0  0  0
  9 24  1  0  0  0  0
 24 25  1  6  0  0  0
 24 26  1  0  0  0  0
 26 27  1  6  0  0  0
 26 28  1  0  0  0  0
 28 29  1  1  0  0  0
 29 30  1  0  0  0  0
 30 31  1  0  0  0  0
 31 32  2  0  0  0  0
 32 33  1  0  0  0  0
 33 34  2  0  0  0  0
 34 35  1  0  0  0  0
 35 36  2  0  0  0  0
 31 36  1  0  0  0  0
 34 37  1  0  0  0  0
 37 38  2  0  0  0  0
 38 39  1  0  0  0  0
 39 40  2  0  0  0  0
 40 41  1  0  0  0  0
 41 42  2  0  0  0  0
 37 42  1  0  0  0  0
 28 43  1  0  0  0  0
 43 44  2  0  0  0  0
 43 45  1  0  0  0  0
 46 45  1  6  0  0  0
 46 47  1  0  0  0  0
 47 48  1  0  0  0  0
 47 49  1  0  0  0  0
 46 50  1  0  0  0  0
 50 51  2  0  0  0  0
 50 52  1  0  0  0  0
 52 53  1  0  0  0  0
  5 54  1  0  0  0  0
 54 55  1  0  0  0  0
 54 56  1  0  0  0  0
M  END
> <DRUGBANK_ID>
DB02683

> <DRUG_GROUPS>
experimental

> <GENERIC_NAME>
Inhibitor Bea428

> <CHEMICAL_FORMULA>
C42H52N6O8

> <MOLECULAR_WEIGHT>
768.8977

> <EXACT_MASS>
768.38466267

> <IUPAC_NAME>
(2S,3R,4R,5S)-3,4-dihydroxy-N,N'-bis[(1R)-2-methyl-1-(methylcarbamoyl)propyl]-2,5-bis({[4-(pyridin-3-yl)phenyl]methoxy})hexanediamide

> <IUPAC_TRADITIONAL_NAME>
inhibitor bea428

> <INCHI_IDENTIFIER>
InChI=1S/C42H52N6O8/c1-25(2)33(39(51)43-5)47-41(53)37(55-23-27-11-15-29(16-12-27)31-9-7-19-45-21-31)35(49)36(50)38(42(54)48-34(26(3)4)40(52)44-6)56-24-28-13-17-30(18-14-28)32-10-8-20-46-22-32/h7-22,25-26,33-38,49-50H,23-24H2,1-6H3,(H,43,51)(H,44,52)(H,47,53)(H,48,54)/t33-,34-,35-,36-,37+,38+/m1/s1

> <INCHI_KEY>
InChIKey=FOBRXMROTNVGST-WNCSSQJPSA-N

> <SMILES>
CNC(=O)[C@H](NC(=O)[C@@H](OCC1=CC=C(C=C1)C1=CC=CN=C1)[C@H](O)[C@@H](O)[C@H](OCC1=CC=C(C=C1)C1=CC=CN=C1)C(=O)N[C@H](C(C)C)C(=O)NC)C(C)C

> <JCHEM_ACCEPTOR_COUNT>
10

> <JCHEM_DONOR_COUNT>
6

> <JCHEM_ACIDIC_PKA>
11.62

> <JCHEM_BASIC_PKA>
5.03

> <JCHEM_PHYSIOLOGICAL_CHARGE>
0

> <ALOGPS_LOGP>
2.9

> <JCHEM_LOGP>
2.04

> <ALOGPS_LOGS>
-5.1

> <JCHEM_POLARIZABILITY>
84.36

> <JCHEM_POLAR_SURFACE_AREA>
201.1

> <JCHEM_REFRACTIVITY>
208.85

> <JCHEM_ROTATABLE_BOND_COUNT>
19

> <ALOGPS_SOLUBILITY>
6.24e-03 g/l __ 

$$$$
