
  Mrv0541 02231216022D          

  9  9  0  0  0  0            999 V2000
    0.0000    3.3000    0.0000 O   0  0  0  0  0  0  0  0  0  0  0  0
    0.0000    2.4750    0.0000 C   0  0  0  0  0  0  0  0  0  0  0  0
    0.7145    2.0625    0.0000 C   0  0  0  0  0  0  0  0  0  0  0  0
    0.7145    1.2375    0.0000 C   0  0  0  0  0  0  0  0  0  0  0  0
    1.4289    0.8250    0.0000 C   0  0  0  0  0  0  0  0  0  0  0  0
    1.4289    0.0000    0.0000 C   0  0  0  0  0  0  0  0  0  0  0  0
    0.7145   -0.4125    0.0000 C   0  0  0  0  0  0  0  0  0  0  0  0
    0.0000    0.0000    0.0000 C   0  0  0  0  0  0  0  0  0  0  0  0
    0.0000    0.8250    0.0000 C   0  0  0  0  0  0  0  0  0  0  0  0
  1  2  1  0  0  0  0
  2  3  1  0  0  0  0
  3  4  1  0  0  0  0
  4  5  2  0  0  0  0
  5  6  1  0  0  0  0
  6  7  2  0  0  0  0
  7  8  1  0  0  0  0
  8  9  2  0  0  0  0
  4  9  1  0  0  0  0
M  END
> <DRUGBANK_ID>
DB02192

> <DRUG_GROUPS>
experimental

> <GENERIC_NAME>
2-Phenyl-Ethanol

> <CHEMICAL_FORMULA>
C8H10O

> <MOLECULAR_WEIGHT>
122.1644

> <EXACT_MASS>
122.073164942

> <IUPAC_NAME>
2-phenylethan-1-ol

> <IUPAC_TRADITIONAL_NAME>
2-phenyl-ethanol

> <INCHI_IDENTIFIER>
InChI=1S/C8H10O/c9-7-6-8-4-2-1-3-5-8/h1-5,9H,6-7H2

> <INCHI_KEY>
InChIKey=WRMNZCZEMHIOCP-UHFFFAOYSA-N

> <SMILES>
OCCC1=CC=CC=C1

> <JCHEM_ACCEPTOR_COUNT>
1

> <JCHEM_DONOR_COUNT>
1

> <JCHEM_ACIDIC_PKA>
15.88

> <JCHEM_BASIC_PKA>
-2.4

> <JCHEM_PHYSIOLOGICAL_CHARGE>
0

> <ALOGPS_LOGP>
1.51

> <JCHEM_LOGP>
1.49

> <ALOGPS_LOGS>
-1

> <JCHEM_POLARIZABILITY>
13.87

> <JCHEM_POLAR_SURFACE_AREA>
20.23

> <JCHEM_REFRACTIVITY>
37.63

> <JCHEM_ROTATABLE_BOND_COUNT>
2

> <ALOGPS_SOLUBILITY>
1.13e+01 g/l __ 

$$$$
