OLO
  Mrv0541 02231215582D          

 22 24  0  0  0  0            999 V2000
   -1.9629    1.3117    0.0000 N   0  0  0  0  0  0  0  0  0  0  0  0
   -2.4478    0.6442    0.0000 C   0  0  0  0  0  0  0  0  0  0  0  0
   -1.9629   -0.0232    0.0000 N   0  0  0  0  0  0  0  0  0  0  0  0
   -1.1783    0.2317    0.0000 C   0  0  0  0  0  0  0  0  0  0  0  0
   -1.1783    1.0567    0.0000 C   0  0  0  0  0  0  0  0  0  0  0  0
   -0.4638   -0.1808    0.0000 C   0  0  0  0  0  0  0  0  0  0  0  0
    0.2507    0.2317    0.0000 N   0  0  0  0  0  0  0  0  0  0  0  0
    0.2507    1.0567    0.0000 C   0  0  0  0  0  0  0  0  0  0  0  0
   -0.4638    1.4692    0.0000 N   0  0  0  0  0  0  0  0  0  0  0  0
   -2.2178    2.0963    0.0000 C   0  0  0  0  0  0  0  0  0  0  0  0
    0.9651    1.4692    0.0000 N   0  0  0  0  0  0  0  0  0  0  0  0
    0.9651    2.2942    0.0000 C   0  0  0  0  0  0  0  0  0  0  0  0
    1.6796    2.7067    0.0000 C   0  0  0  0  0  0  0  0  0  0  0  0
    1.6796    3.5317    0.0000 O   0  0  0  0  0  0  0  0  0  0  0  0
   -0.4638   -1.0058    0.0000 N   0  0  0  0  0  0  0  0  0  0  0  0
    0.2507   -1.4183    0.0000 C   0  0  0  0  0  0  0  0  0  0  0  0
    0.9651   -2.6558    0.0000 C   0  0  0  0  0  0  0  0  0  0  0  0
    0.9651   -3.4808    0.0000 C   0  0  0  0  0  0  0  0  0  0  0  0
    0.2507   -3.8933    0.0000 C   0  0  0  0  0  0  0  0  0  0  0  0
   -0.4638   -3.4808    0.0000 C   0  0  0  0  0  0  0  0  0  0  0  0
   -0.4638   -2.6558    0.0000 C   0  0  0  0  0  0  0  0  0  0  0  0
    0.2507   -2.2433    0.0000 C   0  0  0  0  0  0  0  0  0  0  0  0
  1  2  1  0  0  0  0
  1  5  1  0  0  0  0
  1 10  1  0  0  0  0
  2  3  2  0  0  0  0
  3  4  1  0  0  0  0
  4  5  2  0  0  0  0
  4  6  1  0  0  0  0
  5  9  1  0  0  0  0
  6  7  2  0  0  0  0
  6 15  1  0  0  0  0
  7  8  1  0  0  0  0
  8  9  2  0  0  0  0
  8 11  1  0  0  0  0
 11 12  1  0  0  0  0
 12 13  1  0  0  0  0
 13 14  1  0  0  0  0
 15 16  1  0  0  0  0
 16 22  1  0  0  0  0
 17 18  2  0  0  0  0
 17 22  1  0  0  0  0
 18 19  1  0  0  0  0
 19 20  2  0  0  0  0
 20 21  1  0  0  0  0
 21 22  2  0  0  0  0
M  END
> <DRUGBANK_ID>
DB02116

> <DRUG_GROUPS>
experimental

> <GENERIC_NAME>
Olomoucine

> <CHEMICAL_FORMULA>
C15H18N6O

> <MOLECULAR_WEIGHT>
298.343

> <EXACT_MASS>
298.154209228

> <IUPAC_NAME>
2-{[6-(benzylamino)-9-methyl-9H-purin-2-yl]amino}ethan-1-ol

> <IUPAC_TRADITIONAL_NAME>
olomoucine

> <INCHI_IDENTIFIER>
InChI=1S/C15H18N6O/c1-21-10-18-12-13(17-9-11-5-3-2-4-6-11)19-15(16-7-8-22)20-14(12)21/h2-6,10,22H,7-9H2,1H3,(H2,16,17,19,20)

> <INCHI_KEY>
InChIKey=GTVPOLSIJWJJNY-UHFFFAOYSA-N

> <SMILES>
CN1C=NC2=C1N=C(NCCO)N=C2NCC1=CC=CC=C1

> <JCHEM_ACCEPTOR_COUNT>
6

> <JCHEM_DONOR_COUNT>
3

> <JCHEM_ACIDIC_PKA>
14.85

> <JCHEM_BASIC_PKA>
5.63

> <JCHEM_PHYSIOLOGICAL_CHARGE>
0

> <ALOGPS_LOGP>
1.58

> <JCHEM_LOGP>
1.18

> <ALOGPS_LOGS>
-2.8

> <JCHEM_POLARIZABILITY>
32.85

> <JCHEM_POLAR_SURFACE_AREA>
87.89

> <JCHEM_REFRACTIVITY>
88.03

> <JCHEM_ROTATABLE_BOND_COUNT>
6

> <ALOGPS_SOLUBILITY>
5.09e-01 g/l __ 

$$$$
