
  Mrv0541 02231216142D          

 32 35  0  0  0  0            999 V2000
    2.8579   -5.7750    0.0000 C    0  0  0  0  0  0  0  0  0  0  0  0
    2.8579   -6.6000    0.0000 C    0  0  0  0  0  0  0  0  0  0  0  0
    2.0329   -6.6000    0.0000 C    0  0  0  0  0  0  0  0  0  0  0  0
    3.6829   -6.6000    0.0000 N    0  0  0  0  0  0  0  0  0  0  0  0
    2.8579   -7.4250    0.0000 C    0  0  0  0  0  0  0  0  0  0  0  0
    3.5724   -7.8375    0.0000 C    0  0  0  0  0  0  0  0  0  0  0  0
    3.5724   -8.6625    0.0000 C    0  0  0  0  0  0  0  0  0  0  0  0
    2.8579   -9.0750    0.0000 C    0  0  0  0  0  0  0  0  0  0  0  0
    2.1434   -8.6625    0.0000 C    0  0  0  0  0  0  0  0  0  0  0  0
    2.1434   -7.8375    0.0000 C    0  0  0  0  0  0  0  0  0  0  0  0
    2.8579   -9.9000    0.0000 C    0  0  0  0  0  0  0  0  0  0  0  0
    3.5724  -10.3125    0.0000 N    0  0  0  0  0  0  0  0  0  0  0  0
    3.5724  -11.1375    0.0000 C    0  0  0  0  0  0  0  0  0  0  0  0
    4.2868  -11.5500    0.0000 N    0  0  0  0  0  0  0  0  0  0  0  0
    4.2868  -12.3750    0.0000 C    0  0  0  0  0  0  0  0  0  0  0  0
    5.0013  -12.7875    0.0000 C    0  0  0  0  0  0  0  0  0  0  0  0
    5.0013  -13.6125    0.0000 C    0  0  0  0  0  0  0  0  0  0  0  0
    4.2868  -14.0250    0.0000 C    0  0  0  0  0  0  0  0  0  0  0  0
    4.2868  -14.8500    0.0000 C    0  0  0  0  0  0  0  0  0  0  0  0
    5.0013  -15.2625    0.0000 C    0  0  0  0  0  0  0  0  0  0  0  0
    5.0013  -16.0875    0.0000 N    0  0  0  0  0  0  0  0  0  0  0  0
    5.7158  -16.5000    0.0000 C    0  0  0  0  0  0  0  0  0  0  0  0
    5.7158  -17.3250    0.0000 C    0  0  0  0  0  0  0  0  0  0  0  0
    5.0013  -17.7375    0.0000 O    0  0  0  0  0  0  0  0  0  0  0  0
    4.2868  -17.3250    0.0000 C    0  0  0  0  0  0  0  0  0  0  0  0
    4.2868  -16.5000    0.0000 C    0  0  0  0  0  0  0  0  0  0  0  0
    3.5724  -13.6125    0.0000 C    0  0  0  0  0  0  0  0  0  0  0  0
    3.5724  -12.7875    0.0000 C    0  0  0  0  0  0  0  0  0  0  0  0
    2.8579  -11.5500    0.0000 N    0  0  0  0  0  0  0  0  0  0  0  0
    2.1434  -11.1375    0.0000 C    0  0  0  0  0  0  0  0  0  0  0  0
    2.1434  -10.3125    0.0000 C    0  0  0  0  0  0  0  0  0  0  0  0
    1.4289   -9.9000    0.0000 Cl   0  0  0  0  0  0  0  0  0  0  0  0
  1  2  1  0  0  0  0
  2  3  1  0  0  0  0
  2  4  1  0  0  0  0
  2  5  1  0  0  0  0
  5  6  2  0  0  0  0
  6  7  1  0  0  0  0
  7  8  2  0  0  0  0
  8  9  1  0  0  0  0
  9 10  2  0  0  0  0
  5 10  1  0  0  0  0
  8 11  1  0  0  0  0
 11 12  2  0  0  0  0
 12 13  1  0  0  0  0
 13 14  1  0  0  0  0
 14 15  1  0  0  0  0
 15 16  2  0  0  0  0
 16 17  1  0  0  0  0
 17 18  2  0  0  0  0
 18 19  1  0  0  0  0
 19 20  1  0  0  0  0
 20 21  1  0  0  0  0
 21 22  1  0  0  0  0
 22 23  1  0  0  0  0
 23 24  1  0  0  0  0
 24 25  1  0  0  0  0
 25 26  1  0  0  0  0
 21 26  1  0  0  0  0
 18 27  1  0  0  0  0
 27 28  2  0  0  0  0
 15 28  1  0  0  0  0
 13 29  2  0  0  0  0
 29 30  1  0  0  0  0
 30 31  2  0  0  0  0
 11 31  1  0  0  0  0
 31 32  1  0  0  0  0
M  END
> <DRUGBANK_ID>
DB02491

> <DRUG_GROUPS>
experimental

> <GENERIC_NAME>
4-[4-(1-Amino-1-Methylethyl)Phenyl]-5-Chloro-N-[4-(2-Morpholin-4-Ylethyl)Phenyl]Pyrimidin-2-Amine

> <CHEMICAL_FORMULA>
C25H30ClN5O

> <MOLECULAR_WEIGHT>
451.992

> <EXACT_MASS>
451.213888314

> <IUPAC_NAME>
4-[4-(2-aminopropan-2-yl)phenyl]-5-chloro-N-{4-[2-(morpholin-4-yl)ethyl]phenyl}pyrimidin-2-amine

> <IUPAC_TRADITIONAL_NAME>
4-[4-(2-aminopropan-2-yl)phenyl]-5-chloro-N-{4-[2-(morpholin-4-yl)ethyl]phenyl}pyrimidin-2-amine

> <INCHI_IDENTIFIER>
InChI=1S/C25H30ClN5O/c1-25(2,27)20-7-5-19(6-8-20)23-22(26)17-28-24(30-23)29-21-9-3-18(4-10-21)11-12-31-13-15-32-16-14-31/h3-10,17H,11-16,27H2,1-2H3,(H,28,29,30)

> <INCHI_KEY>
InChIKey=CJSSYVIHFXDFFC-UHFFFAOYSA-N

> <SMILES>
CC(C)(N)C1=CC=C(C=C1)C1=NC(NC2=CC=C(CCN3CCOCC3)C=C2)=NC=C1Cl

> <JCHEM_ACCEPTOR_COUNT>
6

> <JCHEM_DONOR_COUNT>
2

> <JCHEM_ACIDIC_PKA>
13.61

> <JCHEM_BASIC_PKA>
9.88

> <JCHEM_PHYSIOLOGICAL_CHARGE>
2

> <ALOGPS_LOGP>
4.45

> <JCHEM_LOGP>
4.64

> <ALOGPS_LOGS>
-4.9

> <JCHEM_POLARIZABILITY>
50.03

> <JCHEM_POLAR_SURFACE_AREA>
76.3

> <JCHEM_REFRACTIVITY>
130.63

> <JCHEM_ROTATABLE_BOND_COUNT>
7

> <ALOGPS_SOLUBILITY>
6.03e-03 g/l __ 

$$$$
