
  Mrv0541 02231216302D          

  8  8  0  0  1  0            999 V2000
   -0.1467    2.3518    0.0000 O   0  0  0  0  0  0  0  0  0  0  0  0
    0.5678    1.9393    0.0000 C   0  0  0  0  0  0  0  0  0  0  0  0
    1.2822    2.3518    0.0000 O   0  0  0  0  0  0  0  0  0  0  0  0
    0.5678    1.1143    0.0000 C   0  0  1  0  0  0  0  0  0  0  0  0
    1.2352    0.6294    0.0000 C   0  0  0  0  0  0  0  0  0  0  0  0
    0.9803   -0.1553    0.0000 S   0  0  0  0  0  0  0  0  0  0  0  0
    0.1553   -0.1553    0.0000 C   0  0  0  0  0  0  0  0  0  0  0  0
   -0.0997    0.6294    0.0000 N   0  0  0  0  0  0  0  0  0  0  0  0
  1  2  1  0  0  0  0
  2  3  2  0  0  0  0
  4  2  1  1  0  0  0
  4  5  1  0  0  0  0
  5  6  1  0  0  0  0
  6  7  1  0  0  0  0
  7  8  1  0  0  0  0
  4  8  1  0  0  0  0
M  END
> <DRUGBANK_ID>
DB02846

> <DRUG_GROUPS>
experimental

> <GENERIC_NAME>
Thioproline

> <CHEMICAL_FORMULA>
C4H7NO2S

> <MOLECULAR_WEIGHT>
133.169

> <EXACT_MASS>
133.019749163

> <IUPAC_NAME>
(4S)-1,3-thiazolidine-4-carboxylic acid

> <IUPAC_TRADITIONAL_NAME>
thioproline

> <INCHI_IDENTIFIER>
InChI=1S/C4H7NO2S/c6-4(7)3-1-8-2-5-3/h3,5H,1-2H2,(H,6,7)/t3-/m1/s1

> <INCHI_KEY>
InChIKey=DZLNHFMRPBPULJ-GSVOUGTGSA-N

> <SMILES>
OC(=O)[C@H]1CSCN1

> <JCHEM_ACCEPTOR_COUNT>
3

> <JCHEM_DONOR_COUNT>
2

> <JCHEM_ACIDIC_PKA>
2.59

> <JCHEM_BASIC_PKA>
7.7

> <JCHEM_PHYSIOLOGICAL_CHARGE>
0

> <ALOGPS_LOGP>
-2.5

> <JCHEM_LOGP>
-2.7

> <ALOGPS_LOGS>
-0.2

> <JCHEM_POLARIZABILITY>
12.25

> <JCHEM_POLAR_SURFACE_AREA>
49.33

> <JCHEM_REFRACTIVITY>
30.82

> <JCHEM_ROTATABLE_BOND_COUNT>
1

> <ALOGPS_SOLUBILITY>
8.40e+01 g/l __ 

$$$$
