
  Mrv0541 02231216082D          

  5  4  0  0  0  0            999 V2000
     0.825    -0.825     0.000 O   0  5  0  0  0  0  0  0  0  0  0  0
     0.825     0.000     0.000 P   0  0  0  0  0  0  0  0  0  0  0  0
     0.825     0.825     0.000 O   0  5  0  0  0  0  0  0  0  0  0  0
     1.650     0.000     0.000 F   0  0  0  0  0  0  0  0  0  0  0  0
     0.000     0.000     0.000 O   0  0  0  0  0  0  0  0  0  0  0  0
  1  2  1  0  0  0  0
  2  3  1  0  0  0  0
  2  4  1  0  0  0  0
  2  5  2  0  0  0  0
M  END
> <DRUGBANK_ID>
DB02348

> <DRUG_GROUPS>
experimental

> <GENERIC_NAME>
Fluoro-Phosphite Ion

> <CHEMICAL_FORMULA>
FO3P

> <MOLECULAR_WEIGHT>
97.9704

> <EXACT_MASS>
97.956908583

> <IUPAC_NAME>
fluorophosphonate

> <IUPAC_TRADITIONAL_NAME>
fluoro-phosphite ion

> <INCHI_IDENTIFIER>
InChI=1S/FH2O3P/c1-5(2,3)4/h(H2,2,3,4)/p-2

> <INCHI_KEY>
InChIKey=DWYMPOCYEZONEA-UHFFFAOYSA-L

> <SMILES>
[O-]P([O-])(F)=O

> <JCHEM_ACCEPTOR_COUNT>
3

> <JCHEM_DONOR_COUNT>
0

> <JCHEM_ACIDIC_PKA>
0.1

> <JCHEM_PHYSIOLOGICAL_CHARGE>
-2

> <JCHEM_LOGP>
-0.54

> <JCHEM_POLARIZABILITY>
4.59

> <JCHEM_POLAR_SURFACE_AREA>
63.19

> <JCHEM_REFRACTIVITY>
11.35

> <JCHEM_ROTATABLE_BOND_COUNT>
0 __ 

$$$$
