
  Mrv0541 02231216322D          

 33 35  0  0  1  0            999 V2000
   -0.7145   -0.4125    0.0000 C   0  0  0  0  0  0  0  0  0  0  0  0
   -0.7145   -1.2375    0.0000 C   0  0  1  0  0  0  0  0  0  0  0  0
   -1.4289   -1.6500    0.0000 O   0  0  0  0  0  0  0  0  0  0  0  0
   -1.4289   -2.4750    0.0000 C   0  0  1  0  0  0  0  0  0  0  0  0
   -2.1434   -2.8875    0.0000 O   0  0  0  0  0  0  0  0  0  0  0  0
   -2.8579   -2.4750    0.0000 C   0  0  2  0  0  0  0  0  0  0  0  0
   -2.8579   -1.6500    0.0000 C   0  0  2  0  0  0  0  0  0  0  0  0
   -2.1434   -1.2375    0.0000 C   0  0  0  0  0  0  0  0  0  0  0  0
   -2.1434   -0.4125    0.0000 O   0  0  0  0  0  0  0  0  0  0  0  0
   -3.5724   -1.2375    0.0000 O   0  0  0  0  0  0  0  0  0  0  0  0
   -4.2868   -1.6500    0.0000 C   0  0  1  0  0  0  0  0  0  0  0  0
   -5.0013   -1.2375    0.0000 O   0  0  0  0  0  0  0  0  0  0  0  0
   -4.2868   -2.4750    0.0000 C   0  0  2  0  0  0  0  0  0  0  0  0
   -5.0013   -2.8875    0.0000 O   0  0  0  0  0  0  0  0  0  0  0  0
   -3.5724   -2.8875    0.0000 C   0  0  1  0  0  0  0  0  0  0  0  0
   -3.5724   -3.7125    0.0000 O   0  0  0  0  0  0  0  0  0  0  0  0
   -0.7145   -2.8875    0.0000 C   0  0  2  0  0  0  0  0  0  0  0  0
   -0.7145   -3.7125    0.0000 O   0  0  0  0  0  0  0  0  0  0  0  0
    0.0000   -2.4750    0.0000 C   0  0  1  0  0  0  0  0  0  0  0  0
    0.7145   -2.8875    0.0000 O   0  0  0  0  0  0  0  0  0  0  0  0
    0.0000   -1.6500    0.0000 C   0  0  1  0  0  0  0  0  0  0  0  0
    0.7145   -1.2375    0.0000 N   0  0  0  0  0  0  0  0  0  0  0  0
    0.7145   -0.4125    0.0000 C   0  0  2  0  0  0  0  0  0  0  0  0
    0.0000    0.0000    0.0000 C   0  0  0  0  0  0  0  0  0  0  0  0
    0.0000    0.8250    0.0000 C   0  0  0  0  0  0  0  0  0  0  0  0
   -0.7145    1.2375    0.0000 C   0  0  0  0  0  0  0  0  0  0  0  0
   -1.4289    0.8250    0.0000 O   0  0  0  0  0  0  0  0  0  0  0  0
    0.7145    1.2375    0.0000 C   0  0  1  0  0  0  0  0  0  0  0  0
    0.7145    2.0625    0.0000 O   0  0  0  0  0  0  0  0  0  0  0  0
    1.4289    0.8250    0.0000 C   0  0  2  0  0  0  0  0  0  0  0  0
    2.1434    1.2375    0.0000 O   0  0  0  0  0  0  0  0  0  0  0  0
    1.4289    0.0000    0.0000 C   0  0  2  0  0  0  0  0  0  0  0  0
    2.1434   -0.4125    0.0000 O   0  0  0  0  0  0  0  0  0  0  0  0
  2  1  1  6  0  0  0
  2  3  1  0  0  0  0
  3  4  1  0  0  0  0
  4  5  1  6  0  0  0
  6  5  1  1  0  0  0
  6  7  1  0  0  0  0
  7  8  1  1  0  0  0
  8  9  1  0  0  0  0
  7 10  1  0  0  0  0
 10 11  1  0  0  0  0
 11 12  1  6  0  0  0
 11 13  1  0  0  0  0
 13 14  1  1  0  0  0
 13 15  1  0  0  0  0
  6 15  1  0  0  0  0
 15 16  1  6  0  0  0
  4 17  1  0  0  0  0
 17 18  1  1  0  0  0
 17 19  1  0  0  0  0
 19 20  1  6  0  0  0
 19 21  1  0  0  0  0
  2 21  1  0  0  0  0
 21 22  1  6  0  0  0
 23 22  1  6  0  0  0
 23 24  1  0  0  0  0
 24 25  2  0  0  0  0
 25 26  1  0  0  0  0
 26 27  1  0  0  0  0
 25 28  1  0  0  0  0
 28 29  1  1  0  0  0
 28 30  1  0  0  0  0
 30 31  1  6  0  0  0
 30 32  1  0  0  0  0
 23 32  1  0  0  0  0
 32 33  1  6  0  0  0
M  END
> <DRUGBANK_ID>
DB02889

> <DRUG_GROUPS>
experimental

> <GENERIC_NAME>
4-O-(4,6-Dideoxy-4-{[4,5,6-Trihydroxy-3-(Hydroxymethyl)Cyclohex-2-En-1-Yl]Amino}-Beta-D-Lyxo-Hexopyranosyl)-Alpha-D-Erythro-Hexopyranose

> <CHEMICAL_FORMULA>
C19H33NO13

> <MOLECULAR_WEIGHT>
483.4642

> <EXACT_MASS>
483.195190147

> <IUPAC_NAME>
(2R,3R,4R,5S,6S)-5-{[(2S,3R,4S,5R,6R)-3,4-dihydroxy-6-methyl-5-{[(1R,4R,5S,6R)-4,5,6-trihydroxy-3-(hydroxymethyl)cyclohex-2-en-1-yl]amino}oxan-2-yl]oxy}-6-(hydroxymethyl)oxane-2,3,4-triol

> <IUPAC_TRADITIONAL_NAME>
(2R,3R,4R,5S,6S)-5-{[(2S,3R,4S,5R,6R)-3,4-dihydroxy-6-methyl-5-{[(1R,4R,5S,6R)-4,5,6-trihydroxy-3-(hydroxymethyl)cyclohex-2-en-1-yl]amino}oxan-2-yl]oxy}-6-(hydroxymethyl)oxane-2,3,4-triol

> <INCHI_IDENTIFIER>
InChI=1S/C19H33NO13/c1-5-9(20-7-2-6(3-21)10(23)13(26)11(7)24)12(25)16(29)19(31-5)33-17-8(4-22)32-18(30)15(28)14(17)27/h2,5,7-30H,3-4H2,1H3/t5-,7-,8+,9+,10-,11-,12+,13+,14-,15-,16-,17-,18-,19+/m1/s1

> <INCHI_KEY>
InChIKey=SNMISNLUIRCRQE-BUJKQPHDSA-N

> <SMILES>
C[C@H]1O[C@@H](O[C@@H]2[C@H](CO)O[C@@H](O)[C@H](O)[C@H]2O)[C@H](O)[C@@H](O)[C@H]1N[C@@H]1C=C(CO)[C@@H](O)[C@H](O)[C@@H]1O

> <JCHEM_ACCEPTOR_COUNT>
14

> <JCHEM_DONOR_COUNT>
11

> <JCHEM_ACIDIC_PKA>
11.26

> <JCHEM_BASIC_PKA>
7.03

> <JCHEM_PHYSIOLOGICAL_CHARGE>
1

> <ALOGPS_LOGP>
-2.7

> <JCHEM_LOGP>
-5.8

> <ALOGPS_LOGS>
-0.48

> <JCHEM_POLARIZABILITY>
46.72

> <JCHEM_POLAR_SURFACE_AREA>
242.02

> <JCHEM_REFRACTIVITY>
105.19

> <JCHEM_ROTATABLE_BOND_COUNT>
6

> <ALOGPS_SOLUBILITY>
1.59e+02 g/l __ 

$$$$
