
  Mrv0541 02231215552D          

  6  5  0  0  0  0            999 V2000
   -0.1914    0.7145    0.0000 C   0  0  0  0  0  0  0  0  0  0  0  0
    0.5230    1.1270    0.0000 C   0  0  0  0  0  0  0  0  0  0  0  0
    1.2375    0.7145    0.0000 C   0  0  0  0  0  0  0  0  0  0  0  0
    1.9520    1.1270    0.0000 C   0  0  0  0  0  0  0  0  0  0  0  0
    2.6664    0.7145    0.0000 C   0  0  0  0  0  0  0  0  0  0  0  0
    3.3809    1.1270    0.0000 N   0  0  0  0  0  0  0  0  0  0  0  0
  1  2  1  0  0  0  0
  2  3  1  0  0  0  0
  3  4  1  0  0  0  0
  4  5  1  0  0  0  0
  5  6  1  0  0  0  0
M  END
> <DRUGBANK_ID>
DB02045

> <DRUG_GROUPS>
experimental

> <GENERIC_NAME>
Amylamine

> <CHEMICAL_FORMULA>
C5H13N

> <MOLECULAR_WEIGHT>
87.1634

> <EXACT_MASS>
87.104799421

> <IUPAC_NAME>
pentan-1-amine

> <IUPAC_TRADITIONAL_NAME>
amylamine

> <INCHI_IDENTIFIER>
InChI=1S/C5H13N/c1-2-3-4-5-6/h2-6H2,1H3

> <INCHI_KEY>
InChIKey=DPBLXKKOBLCELK-UHFFFAOYSA-N

> <SMILES>
CCCCCN

> <JCHEM_ACCEPTOR_COUNT>
1

> <JCHEM_DONOR_COUNT>
1

> <JCHEM_BASIC_PKA>
10.21

> <JCHEM_PHYSIOLOGICAL_CHARGE>
1

> <ALOGPS_LOGP>
1.39

> <JCHEM_LOGP>
1.14

> <ALOGPS_LOGS>
-0.69

> <JCHEM_POLARIZABILITY>
11.68

> <JCHEM_POLAR_SURFACE_AREA>
26.02

> <JCHEM_REFRACTIVITY>
28.39

> <JCHEM_ROTATABLE_BOND_COUNT>
3

> <ALOGPS_SOLUBILITY>
1.80e+01 g/l __ 

$$$$
