
  Mrv0541 02231216242D          

 17 18  0  0  0  0            999 V2000
    1.4289   -1.6500    0.0000 O   0  0  0  0  0  0  0  0  0  0  0  0
    1.4289   -2.4750    0.0000 C   0  0  0  0  0  0  0  0  0  0  0  0
    2.1434   -2.8875    0.0000 C   0  0  0  0  0  0  0  0  0  0  0  0
    2.1434   -3.7125    0.0000 C   0  0  0  0  0  0  0  0  0  0  0  0
    1.4289   -4.1250    0.0000 C   0  0  0  0  0  0  0  0  0  0  0  0
    0.7145   -3.7125    0.0000 C   0  0  0  0  0  0  0  0  0  0  0  0
    0.7145   -2.8875    0.0000 C   0  0  0  0  0  0  0  0  0  0  0  0
    1.4289   -4.9500    0.0000 C   0  0  0  0  0  0  0  0  0  0  0  0
    2.1434   -5.3625    0.0000 C   0  0  0  0  0  0  0  0  0  0  0  0
    2.1434   -6.1875    0.0000 C   0  0  0  0  0  0  0  0  0  0  0  0
    2.8579   -6.6000    0.0000 C   0  0  0  0  0  0  0  0  0  0  0  0
    2.8579   -7.4250    0.0000 C   0  0  0  0  0  0  0  0  0  0  0  0
    3.5724   -7.8375    0.0000 O   0  0  0  0  0  0  0  0  0  0  0  0
    2.1434   -7.8375    0.0000 C   0  0  0  0  0  0  0  0  0  0  0  0
    1.4289   -7.4250    0.0000 C   0  0  0  0  0  0  0  0  0  0  0  0
    0.7145   -7.8375    0.0000 O   0  0  0  0  0  0  0  0  0  0  0  0
    1.4289   -6.6000    0.0000 C   0  0  0  0  0  0  0  0  0  0  0  0
  1  2  1  0  0  0  0
  2  3  2  0  0  0  0
  3  4  1  0  0  0  0
  4  5  2  0  0  0  0
  5  6  1  0  0  0  0
  6  7  2  0  0  0  0
  2  7  1  0  0  0  0
  5  8  1  0  0  0  0
  8  9  2  0  0  0  0
  9 10  1  0  0  0  0
 10 11  2  0  0  0  0
 11 12  1  0  0  0  0
 12 13  1  0  0  0  0
 12 14  2  0  0  0  0
 14 15  1  0  0  0  0
 15 16  1  0  0  0  0
 15 17  2  0  0  0  0
 10 17  1  0  0  0  0
M  END
> <DRUGBANK_ID>
DB02709

> <DRUG_GROUPS>
experimental; investigational

> <GENERIC_NAME>
Resveratrol

> <SYNONYMS>


> <CHEMICAL_FORMULA>
C14H12O3

> <MOLECULAR_WEIGHT>
228.2433

> <EXACT_MASS>
228.07864425

> <IUPAC_NAME>
5-[(E)-2-(4-hydroxyphenyl)ethenyl]benzene-1,3-diol

> <IUPAC_TRADITIONAL_NAME>
resveratrol

> <INCHI_IDENTIFIER>
InChI=1S/C14H12O3/c15-12-5-3-10(4-6-12)1-2-11-7-13(16)9-14(17)8-11/h1-9,15-17H/b2-1+

> <INCHI_KEY>
InChIKey=LUKBXSAWLPMMSZ-OWOJBTEDSA-N

> <SMILES>
OC1=CC=C(\C=C\C2=CC(O)=CC(O)=C2)C=C1

> <JCHEM_ACCEPTOR_COUNT>
3

> <JCHEM_DONOR_COUNT>
3

> <JCHEM_ACIDIC_PKA>
8.99

> <JCHEM_BASIC_PKA>
-5.7

> <JCHEM_PHYSIOLOGICAL_CHARGE>
0

> <ALOGPS_LOGP>
2.57

> <JCHEM_LOGP>
3.4

> <ALOGPS_LOGS>
-3.5

> <JCHEM_POLARIZABILITY>
24.55

> <JCHEM_POLAR_SURFACE_AREA>
60.69

> <JCHEM_REFRACTIVITY>
67.46

> <JCHEM_ROTATABLE_BOND_COUNT>
2

> <ALOGPS_SOLUBILITY>
6.88e-02 g/l __ 

$$$$
