
  Mrv0541 02231216162D          

  6  5  0  0  1  0            999 V2000
    2.4750   -1.4289    0.0000 O   0  0  0  0  0  0  0  0  0  0  0  0
    2.0625   -0.7145    0.0000 C   0  0  0  0  0  0  0  0  0  0  0  0
    1.2375   -0.7145    0.0000 C   0  0  1  0  0  0  0  0  0  0  0  0
    0.8250   -1.4289    0.0000 O   0  0  0  0  0  0  0  0  0  0  0  0
    0.8250    0.0000    0.0000 C   0  0  0  0  0  0  0  0  0  0  0  0
    0.0000    0.0000    0.0000 O   0  0  0  0  0  0  0  0  0  0  0  0
  1  2  1  0  0  0  0
  2  3  1  0  0  0  0
  3  4  1  1  0  0  0
  3  5  1  0  0  0  0
  5  6  2  0  0  0  0
M  END
> <DRUGBANK_ID>
DB02536

> <DRUG_GROUPS>
experimental

> <GENERIC_NAME>
(2r)-2,3-Dihydroxypropanal

> <CHEMICAL_FORMULA>
C3H6O3

> <MOLECULAR_WEIGHT>
90.0779

> <EXACT_MASS>
90.031694058

> <IUPAC_NAME>
(2R)-2,3-dihydroxypropanal

> <IUPAC_TRADITIONAL_NAME>
glyceraldehyde

> <INCHI_IDENTIFIER>
InChI=1S/C3H6O3/c4-1-3(6)2-5/h1,3,5-6H,2H2/t3-/m0/s1

> <INCHI_KEY>
InChIKey=MNQZXJOMYWMBOU-VKHMYHEASA-N

> <SMILES>
OC[C@@H](O)C=O

> <JCHEM_ACCEPTOR_COUNT>
3

> <JCHEM_DONOR_COUNT>
2

> <JCHEM_ACIDIC_PKA>
12.8

> <JCHEM_BASIC_PKA>
-3

> <JCHEM_PHYSIOLOGICAL_CHARGE>
0

> <ALOGPS_LOGP>
-1.6

> <JCHEM_LOGP>
-1.7

> <ALOGPS_LOGS>
0.96

> <JCHEM_POLARIZABILITY>
8.05

> <JCHEM_POLAR_SURFACE_AREA>
57.53

> <JCHEM_REFRACTIVITY>
19.46

> <JCHEM_ROTATABLE_BOND_COUNT>
2

> <ALOGPS_SOLUBILITY>
8.14e+02 g/l __ 

$$$$
