
  Mrv0541 02231216192D          

 17 17  0  0  1  0            999 V2000
   -0.7145   -0.4125    0.0000 O   0  0  0  0  0  0  0  0  0  0  0  0
    0.0000    0.0000    0.0000 C   0  0  1  0  0  0  0  0  0  0  0  0
    0.0000    0.8250    0.0000 C   0  0  0  0  0  0  0  0  0  0  0  0
    0.7145    1.2375    0.0000 C   0  0  1  0  0  0  0  0  0  0  0  0
    0.1842    1.8695    0.0000 O   0  0  0  0  0  0  0  0  0  0  0  0
    1.4289    0.8250    0.0000 C   0  0  0  0  0  0  0  0  0  0  0  0
    1.4289    0.0000    0.0000 C   0  0  1  0  0  0  0  0  0  0  0  0
    2.1434   -0.4125    0.0000 C   0  0  0  0  0  0  0  0  0  0  0  0
    2.1434   -1.2375    0.0000 P   0  0  0  0  0  0  0  0  0  0  0  0
    2.1434   -2.0625    0.0000 O   0  0  0  0  0  0  0  0  0  0  0  0
    2.9684   -1.2375    0.0000 O   0  0  0  0  0  0  0  0  0  0  0  0
    1.3184   -1.2375    0.0000 O   0  0  0  0  0  0  0  0  0  0  0  0
    0.7145   -0.4125    0.0000 C   0  0  2  0  0  0  0  0  0  0  0  0
    0.7145   -1.2375    0.0000 O   0  0  0  0  0  0  0  0  0  0  0  0
    1.2448    1.8695    0.0000 C   0  0  0  0  0  0  0  0  0  0  0  0
    0.9626    2.6447    0.0000 O   0  0  0  0  0  0  0  0  0  0  0  0
    2.0572    1.7262    0.0000 O   0  0  0  0  0  0  0  0  0  0  0  0
  2  1  1  1  0  0  0
  2  3  1  0  0  0  0
  3  4  1  0  0  0  0
  4  5  1  1  0  0  0
  4  6  1  0  0  0  0
  6  7  1  0  0  0  0
  7  8  1  1  0  0  0
  8  9  1  0  0  0  0
  9 10  1  0  0  0  0
  9 11  1  0  0  0  0
  9 12  2  0  0  0  0
  7 13  1  0  0  0  0
  2 13  1  0  0  0  0
 13 14  1  6  0  0  0
  4 15  1  6  0  0  0
 15 16  1  0  0  0  0
 15 17  2  0  0  0  0
M  END
> <DRUGBANK_ID>
DB02592

> <DRUG_GROUPS>
experimental

> <GENERIC_NAME>
Carbaphosphonate

> <CHEMICAL_FORMULA>
C8H15O8P

> <MOLECULAR_WEIGHT>
270.1737

> <EXACT_MASS>
270.050453968

> <IUPAC_NAME>
(1S,3S,4S,5R)-1,3,4-trihydroxy-5-(phosphonomethyl)cyclohexane-1-carboxylic acid

> <IUPAC_TRADITIONAL_NAME>
carbaphosphonate

> <INCHI_IDENTIFIER>
InChI=1S/C8H15O8P/c9-5-2-8(13,7(11)12)1-4(6(5)10)3-17(14,15)16/h4-6,9-10,13H,1-3H2,(H,11,12)(H2,14,15,16)/t4-,5-,6-,8-/m0/s1

> <INCHI_KEY>
InChIKey=BKLICLLAHMTUPK-TYQACLPBSA-N

> <SMILES>
O[C@H]1C[C@@](O)(C[C@@H](CP(O)(O)=O)[C@@H]1O)C(O)=O

> <JCHEM_ACCEPTOR_COUNT>
8

> <JCHEM_DONOR_COUNT>
6

> <JCHEM_ACIDIC_PKA>
1.8

> <JCHEM_BASIC_PKA>
-3.2

> <JCHEM_PHYSIOLOGICAL_CHARGE>
-2

> <ALOGPS_LOGP>
-2.7

> <JCHEM_LOGP>
-3.4

> <ALOGPS_LOGS>
-0.81

> <JCHEM_POLARIZABILITY>
22.75

> <JCHEM_POLAR_SURFACE_AREA>
155.52

> <JCHEM_REFRACTIVITY>
53.73

> <JCHEM_ROTATABLE_BOND_COUNT>
3

> <ALOGPS_SOLUBILITY>
4.21e+01 g/l __ 

$$$$
