
  Mrv0541 02231216162D          

  8  8  0  0  0  0            999 V2000
   -0.1467    2.3518    0.0000 O   0  5  0  0  0  0  0  0  0  0  0  0
    0.5678    1.9393    0.0000 C   0  0  0  0  0  0  0  0  0  0  0  0
    1.2822    2.3518    0.0000 O   0  0  0  0  0  0  0  0  0  0  0  0
    0.5678    1.1143    0.0000 C   0  0  0  0  0  0  0  0  0  0  0  0
    1.2352    0.6294    0.0000 C   0  0  0  0  0  0  0  0  0  0  0  0
    0.9803   -0.1553    0.0000 C   0  0  0  0  0  0  0  0  0  0  0  0
    0.1553   -0.1553    0.0000 C   0  0  0  0  0  0  0  0  0  0  0  0
   -0.0997    0.6294    0.0000 N   0  0  0  0  0  0  0  0  0  0  0  0
  1  2  1  0  0  0  0
  2  3  2  0  0  0  0
  2  4  1  0  0  0  0
  4  5  4  0  0  0  0
  5  6  4  0  0  0  0
  6  7  4  0  0  0  0
  7  8  4  0  0  0  0
  4  8  4  0  0  0  0
M  END
> <DRUGBANK_ID>
DB02543

> <DRUG_GROUPS>
experimental

> <GENERIC_NAME>
Pyrrole-2-Carboxylate

> <CHEMICAL_FORMULA>
C5H3NO2

> <MOLECULAR_WEIGHT>
109.0828

> <EXACT_MASS>
109.016378345

> <IUPAC_NAME>
pyrrole-2-carboxylate

> <IUPAC_TRADITIONAL_NAME>
pyrrole-2-carboxylate

> <INCHI_IDENTIFIER>
InChI=1S/C5H4NO2/c7-5(8)4-2-1-3-6-4/h1-3H,(H,7,8)/p-1

> <INCHI_KEY>
InChIKey=LGLLLSXCRNWFKJ-UHFFFAOYSA-M

> <SMILES>
[O-]C(=O)c1cccn1

> <JCHEM_ACCEPTOR_COUNT>
3

> <JCHEM_DONOR_COUNT>
0

> <JCHEM_ACIDIC_PKA>
1.75

> <JCHEM_BASIC_PKA>
5.14

> <JCHEM_PHYSIOLOGICAL_CHARGE>
-1

> <ALOGPS_LOGP>
0.34

> <JCHEM_LOGP>
-0.99

> <ALOGPS_LOGS>
0.69

> <JCHEM_POLARIZABILITY>
9.47

> <JCHEM_POLAR_SURFACE_AREA>
53.02

> <JCHEM_REFRACTIVITY>
37.28

> <JCHEM_ROTATABLE_BOND_COUNT>
1

> <ALOGPS_SOLUBILITY>
6.21e+02 g/l __ 

$$$$
