
  Mrv0541 02231216202D          

  7  7  0  0  1  0            999 V2000
    2.0198    0.8843    0.0000 N   0  0  0  0  0  0  0  0  0  0  0  0
    1.2352    0.6294    0.0000 C   0  0  2  0  0  0  0  0  0  0  0  0
    0.9803   -0.1553    0.0000 C   0  0  0  0  0  0  0  0  0  0  0  0
    0.1553   -0.1553    0.0000 C   0  0  0  0  0  0  0  0  0  0  0  0
   -0.0997    0.6294    0.0000 O   0  0  0  0  0  0  0  0  0  0  0  0
    0.5678    1.1143    0.0000 C   0  0  0  0  0  0  0  0  0  0  0  0
    0.5678    1.9393    0.0000 O   0  0  0  0  0  0  0  0  0  0  0  0
  2  1  1  6  0  0  0
  2  3  1  0  0  0  0
  3  4  1  0  0  0  0
  4  5  1  0  0  0  0
  5  6  1  0  0  0  0
  2  6  1  0  0  0  0
  6  7  2  0  0  0  0
M  END
> <DRUGBANK_ID>
DB02624

> <DRUG_GROUPS>
experimental

> <GENERIC_NAME>
Homoserine Lactone

> <CHEMICAL_FORMULA>
C4H7NO2

> <MOLECULAR_WEIGHT>
101.1039

> <EXACT_MASS>
101.047678473

> <IUPAC_NAME>
(3R)-3-aminooxolan-2-one

> <IUPAC_TRADITIONAL_NAME>
homoserine lactone

> <INCHI_IDENTIFIER>
InChI=1S/C4H7NO2/c5-3-1-2-7-4(3)6/h3H,1-2,5H2/t3-/m1/s1

> <INCHI_KEY>
InChIKey=QJPWUUJVYOJNMH-GSVOUGTGSA-N

> <SMILES>
N[C@@H]1CCOC1=O

> <JCHEM_ACCEPTOR_COUNT>
2

> <JCHEM_DONOR_COUNT>
1

> <JCHEM_BASIC_PKA>
7.33

> <JCHEM_PHYSIOLOGICAL_CHARGE>
1

> <ALOGPS_LOGP>
-1.4

> <JCHEM_LOGP>
-0.9

> <ALOGPS_LOGS>
0.84

> <JCHEM_POLARIZABILITY>
9.47

> <JCHEM_POLAR_SURFACE_AREA>
52.32

> <JCHEM_REFRACTIVITY>
23.41

> <JCHEM_ROTATABLE_BOND_COUNT>
0

> <ALOGPS_SOLUBILITY>
6.95e+02 g/l __ 

$$$$
