
  Mrv0541 02231216252D          

 16 17  0  0  1  0            999 V2000
    2.5645    2.4750    0.0000 O   0  0  0  0  0  0  0  0  0  0  0  0
    3.2789    2.0625    0.0000 C   0  0  0  0  0  0  0  0  0  0  0  0
    3.2789    1.2375    0.0000 C   0  0  2  0  0  0  0  0  0  0  0  0
    3.9934    0.8250    0.0000 C   0  0  1  0  0  0  0  0  0  0  0  0
    4.7079    1.2375    0.0000 O   0  0  0  0  0  0  0  0  0  0  0  0
    3.9934    0.0000    0.0000 C   0  0  2  0  0  0  0  0  0  0  0  0
    4.7079   -0.4125    0.0000 O   0  0  0  0  0  0  0  0  0  0  0  0
    3.2789   -0.4125    0.0000 C   0  0  1  0  0  0  0  0  0  0  0  0
    3.2789   -1.2375    0.0000 O   0  0  0  0  0  0  0  0  0  0  0  0
    2.5645    0.0000    0.0000 C   0  0  2  0  0  0  0  0  0  0  0  0
    1.7798   -0.2549    0.0000 N   0  0  0  0  0  0  0  0  0  0  0  0
    1.2949    0.4125    0.0000 C   0  0  0  0  0  0  0  0  0  0  0  0
    0.4699    0.4125    0.0000 O   0  0  0  0  0  0  0  0  0  0  0  0
    1.7798    1.0799    0.0000 C   0  0  0  0  0  0  0  0  0  0  0  0
    1.5249    1.8646    0.0000 O   0  0  0  0  0  0  0  0  0  0  0  0
    2.5645    0.8250    0.0000 N   0  0  0  0  0  0  0  0  0  0  0  0
  1  2  1  0  0  0  0
  3  2  1  6  0  0  0
  3  4  1  0  0  0  0
  4  5  1  1  0  0  0
  4  6  1  0  0  0  0
  6  7  1  6  0  0  0
  6  8  1  0  0  0  0
  8  9  1  1  0  0  0
  8 10  1  0  0  0  0
 10 11  1  0  0  0  0
 11 12  1  0  0  0  0
 12 13  2  0  0  0  0
 12 14  1  0  0  0  0
 14 15  2  0  0  0  0
 14 16  1  0  0  0  0
  3 16  1  0  0  0  0
 10 16  1  6  0  0  0
M  END
> <DRUGBANK_ID>
DB02742

> <DRUG_GROUPS>
experimental

> <GENERIC_NAME>
Kifunensine

> <CHEMICAL_FORMULA>
C8H12N2O6

> <MOLECULAR_WEIGHT>
232.1907

> <EXACT_MASS>
232.069536126

> <IUPAC_NAME>
(5R,6R,7S,8S,8aR)-6,7,8-trihydroxy-5-(hydroxymethyl)-octahydroimidazolidino[1,2-a]pyridine-2,3-dione

> <IUPAC_TRADITIONAL_NAME>
kifunensine

> <INCHI_IDENTIFIER>
InChI=1S/C8H12N2O6/c11-1-2-3(12)4(13)5(14)6-9-7(15)8(16)10(2)6/h2-6,11-14H,1H2,(H,9,15)/t2-,3-,4+,5-,6-/m1/s1

> <INCHI_KEY>
InChIKey=OIURYJWYVIAOCW-VFUOTHLCSA-N

> <SMILES>
OC[C@@H]1[C@@H](O)[C@H](O)[C@@H](O)[C@@H]2NC(=O)C(=O)N12

> <JCHEM_ACCEPTOR_COUNT>
6

> <JCHEM_DONOR_COUNT>
5

> <JCHEM_ACIDIC_PKA>
9.94

> <JCHEM_BASIC_PKA>
-2.8

> <JCHEM_PHYSIOLOGICAL_CHARGE>
0

> <ALOGPS_LOGP>
-2.5

> <JCHEM_LOGP>
-3.7

> <ALOGPS_LOGS>
-0.09

> <JCHEM_POLARIZABILITY>
20.45

> <JCHEM_POLAR_SURFACE_AREA>
130.33

> <JCHEM_REFRACTIVITY>
47.42

> <JCHEM_ROTATABLE_BOND_COUNT>
1

> <ALOGPS_SOLUBILITY>
1.90e+02 g/l __ 

$$$$
