
  Mrv0541 02231216102D          

 18 18  0  0  1  0            999 V2000
    2.0198    0.8843    0.0000 O   0  0  0  0  0  0  0  0  0  0  0  0
    1.2352    0.6294    0.0000 C   0  0  2  0  0  0  0  0  0  0  0  0
    0.9803   -0.1553    0.0000 C   0  0  1  0  0  0  0  0  0  0  0  0
    1.4652   -0.8227    0.0000 O   0  0  0  0  0  0  0  0  0  0  0  0
    0.1553   -0.1553    0.0000 C   0  0  2  0  0  0  0  0  0  0  0  0
   -0.3297   -0.8227    0.0000 C   0  0  0  0  0  0  0  0  0  0  0  0
    0.0059   -1.5764    0.0000 P   0  0  0  0  0  0  0  0  0  0  0  0
    0.3415   -2.3300    0.0000 O   0  0  0  0  0  0  0  0  0  0  0  0
    0.7596   -1.2408    0.0000 O   0  0  0  0  0  0  0  0  0  0  0  0
   -0.7478   -1.9119    0.0000 O   0  0  0  0  0  0  0  0  0  0  0  0
   -0.0997    0.6294    0.0000 O   0  0  0  0  0  0  0  0  0  0  0  0
    0.5678    1.1143    0.0000 C   0  0  1  0  0  0  0  0  0  0  0  0
    0.5678    1.9393    0.0000 C   0  0  0  0  0  0  0  0  0  0  0  0
    1.2822    2.3518    0.0000 O   0  0  0  0  0  0  0  0  0  0  0  0
    1.2822    3.1768    0.0000 P   0  0  0  0  0  0  0  0  0  0  0  0
    1.2822    4.0018    0.0000 O   0  0  0  0  0  0  0  0  0  0  0  0
    2.1072    3.1768    0.0000 O   0  0  0  0  0  0  0  0  0  0  0  0
    0.4572    3.1768    0.0000 O   0  0  0  0  0  0  0  0  0  0  0  0
  2  1  1  6  0  0  0
  2  3  1  0  0  0  0
  3  4  1  1  0  0  0
  3  5  1  0  0  0  0
  5  6  1  6  0  0  0
  6  7  1  0  0  0  0
  7  8  1  0  0  0  0
  7  9  1  0  0  0  0
  7 10  2  0  0  0  0
  5 11  1  0  0  0  0
 11 12  1  0  0  0  0
  2 12  1  0  0  0  0
 12 13  1  1  0  0  0
 13 14  1  0  0  0  0
 14 15  1  0  0  0  0
 15 16  1  0  0  0  0
 15 17  1  0  0  0  0
 15 18  2  0  0  0  0
M  END
> <DRUGBANK_ID>
DB02393

> <DRUG_GROUPS>
experimental

> <GENERIC_NAME>
D-Gluco-2,5-Anhydro-1-Deoxy-1-Phosphonohexitol-6-Phosphate

> <CHEMICAL_FORMULA>
C6H14O10P2

> <MOLECULAR_WEIGHT>
308.1169

> <EXACT_MASS>
308.006219692

> <IUPAC_NAME>
{[(2R,3R,4R,5S)-3,4-dihydroxy-5-[(phosphonooxy)methyl]oxolan-2-yl]methyl}phosphonic acid

> <IUPAC_TRADITIONAL_NAME>
[(2R,3R,4R,5S)-3,4-dihydroxy-5-[(phosphonooxy)methyl]oxolan-2-yl]methylphosphonic acid

> <INCHI_IDENTIFIER>
InChI=1S/C6H14O10P2/c7-5-3(1-15-18(12,13)14)16-4(6(5)8)2-17(9,10)11/h3-8H,1-2H2,(H2,9,10,11)(H2,12,13,14)/t3-,4-,5-,6-/m0/s1

> <INCHI_KEY>
InChIKey=YBOWGOLYQKBCFB-BXKVDMCESA-N

> <SMILES>
O[C@@H]1[C@@H](O)[C@H](CP(O)(O)=O)O[C@H]1COP(O)(O)=O

> <JCHEM_ACCEPTOR_COUNT>
9

> <JCHEM_DONOR_COUNT>
6

> <JCHEM_ACIDIC_PKA>
1.12

> <JCHEM_BASIC_PKA>
-3.6

> <JCHEM_PHYSIOLOGICAL_CHARGE>
-3

> <ALOGPS_LOGP>
-1.6

> <JCHEM_LOGP>
-3.5

> <ALOGPS_LOGS>
-1.1

> <JCHEM_POLARIZABILITY>
23.65

> <JCHEM_POLAR_SURFACE_AREA>
173.98

> <JCHEM_REFRACTIVITY>
54.81

> <JCHEM_ROTATABLE_BOND_COUNT>
5

> <ALOGPS_SOLUBILITY>
2.18e+01 g/l __ 

$$$$
