
  Mrv0541 02231216182D          

 26 25  0  0  1  0            999 V2000
   17.9506    6.2388    0.0000 C   0  0  0  0  0  0  0  0  0  0  0  0
   17.9506    5.4138    0.0000 C   0  0  1  0  0  0  0  0  0  0  0  0
   17.2362    5.0013    0.0000 N   0  0  0  0  0  0  0  0  0  0  0  0
   16.5217    5.4138    0.0000 C   0  0  0  0  0  0  0  0  0  0  0  0
   16.5217    6.2388    0.0000 O   0  0  0  0  0  0  0  0  0  0  0  0
   15.8072    5.0013    0.0000 C   0  0  1  0  0  0  0  0  0  0  0  0
   15.8072    4.1763    0.0000 C   0  0  0  0  0  0  0  0  0  0  0  0
   15.0927    5.4138    0.0000 N   0  0  0  0  0  0  0  0  0  0  0  0
   14.3783    5.0013    0.0000 C   0  0  0  0  0  0  0  0  0  0  0  0
   14.3783    4.1763    0.0000 O   0  0  0  0  0  0  0  0  0  0  0  0
   13.6638    5.4138    0.0000 C   0  0  0  0  0  0  0  0  0  0  0  0
   12.9493    5.0013    0.0000 C   0  0  0  0  0  0  0  0  0  0  0  0
   12.2349    5.4138    0.0000 C   0  0  0  0  0  0  0  0  0  0  0  0
   11.5204    5.0013    0.0000 C   0  0  0  0  0  0  0  0  0  0  0  0
   10.8059    5.4138    0.0000 C   0  0  1  0  0  0  0  0  0  0  0  0
   10.0914    5.0013    0.0000 N   0  0  0  0  0  0  0  0  0  0  0  0
    9.3770    5.4138    0.0000 C   0  0  0  0  0  0  0  0  0  0  0  0
    9.3770    6.2388    0.0000 O   0  0  0  0  0  0  0  0  0  0  0  0
    8.6625    5.0013    0.0000 C   0  0  0  0  0  0  0  0  0  0  0  0
    7.9480    5.4138    0.0000 N   0  3  0  0  0  0  0  0  0  0  0  0
   10.8059    6.2388    0.0000 C   0  0  0  0  0  0  0  0  0  0  0  0
   10.0914    6.6513    0.0000 O   0  5  0  0  0  0  0  0  0  0  0  0
   11.5204    6.6513    0.0000 O   0  0  0  0  0  0  0  0  0  0  0  0
   18.6651    5.0013    0.0000 C   0  0  0  0  0  0  0  0  0  0  0  0
   19.3796    5.4138    0.0000 O   0  0  0  0  0  0  0  0  0  0  0  0
   18.6651    4.1763    0.0000 O   0  0  0  0  0  0  0  0  0  0  0  0
  2  1  1  6  0  0  0
  2  3  1  0  0  0  0
  3  4  1  0  0  0  0
  4  5  2  0  0  0  0
  4  6  1  0  0  0  0
  6  7  1  1  0  0  0
  6  8  1  0  0  0  0
  8  9  1  0  0  0  0
  9 10  2  0  0  0  0
  9 11  1  0  0  0  0
 11 12  1  0  0  0  0
 12 13  1  0  0  0  0
 13 14  1  0  0  0  0
 14 15  1  0  0  0  0
 15 16  1  1  0  0  0
 16 17  1  0  0  0  0
 17 18  2  0  0  0  0
 17 19  1  0  0  0  0
 19 20  1  0  0  0  0
 15 21  1  0  0  0  0
 21 22  1  0  0  0  0
 21 23  2  0  0  0  0
  2 24  1  0  0  0  0
 24 25  1  0  0  0  0
 24 26  2  0  0  0  0
M  END
> <DRUGBANK_ID>
DB02578

> <DRUG_GROUPS>
experimental

> <GENERIC_NAME>
Glycyl-L-Alpha-Amino-Epsilon-Pimelyl-D-Alanyl-D-Alanine

> <CHEMICAL_FORMULA>
C15H26N4O7

> <MOLECULAR_WEIGHT>
374.3895

> <EXACT_MASS>
374.180149206

> <IUPAC_NAME>
(2R)-2-(2-azaniumylacetamido)-6-{[(1R)-1-{[(1R)-1-carboxyethyl]carbamoyl}ethyl]carbamoyl}hexanoate

> <IUPAC_TRADITIONAL_NAME>
(2R)-2-(2-aminioacetamido)-6-{[(1R)-1-{[(1R)-1-carboxyethyl]carbamoyl}ethyl]carbamoyl}hexanoate

> <INCHI_IDENTIFIER>
InChI=1S/C15H26N4O7/c1-8(13(22)18-9(2)14(23)24)17-11(20)6-4-3-5-10(15(25)26)19-12(21)7-16/h8-10H,3-7,16H2,1-2H3,(H,17,20)(H,18,22)(H,19,21)(H,23,24)(H,25,26)/t8-,9-,10-/m1/s1

> <INCHI_KEY>
InChIKey=RALBRZJHHGWNNU-OPRDCNLKSA-N

> <SMILES>
C[C@@H](NC(=O)[C@@H](C)NC(=O)CCCC[C@@H](NC(=O)C[NH3+])C([O-])=O)C(O)=O

> <JCHEM_ACCEPTOR_COUNT>
7

> <JCHEM_DONOR_COUNT>
5

> <JCHEM_ACIDIC_PKA>
3.2

> <JCHEM_BASIC_PKA>
8.14

> <JCHEM_PHYSIOLOGICAL_CHARGE>
-1

> <ALOGPS_LOGP>
-1.6

> <JCHEM_LOGP>
-4.9

> <ALOGPS_LOGS>
-2.5

> <JCHEM_POLARIZABILITY>
37.33

> <JCHEM_POLAR_SURFACE_AREA>
192.37

> <JCHEM_REFRACTIVITY>
110.02

> <JCHEM_ROTATABLE_BOND_COUNT>
12

> <ALOGPS_SOLUBILITY>
1.33e+00 g/l __ 

$$$$
