
  Mrv0541 02231216252D          

 14 14  0  0  1  0            999 V2000
   -0.7145   -0.4125    0.0000 N   0  0  0  0  0  0  0  0  0  0  0  0
    0.0000    0.0000    0.0000 C   0  0  1  0  0  0  0  0  0  0  0  0
    0.0000    0.8250    0.0000 C   0  0  0  0  0  0  0  0  0  0  0  0
    0.7145    1.2375    0.0000 C   0  0  0  0  0  0  0  0  0  0  0  0
    1.4289    0.8250    0.0000 C   0  0  1  0  0  0  0  0  0  0  0  0
    2.1434    1.2375    0.0000 C   0  0  0  0  0  0  0  0  0  0  0  0
    2.8579    0.8250    0.0000 C   0  0  0  0  0  0  0  0  0  0  0  0
    3.5724    1.2375    0.0000 C   0  0  2  0  0  0  0  0  0  0  0  0
    3.5724    2.0625    0.0000 N   0  0  0  0  0  0  0  0  0  0  0  0
    4.2868    0.8250    0.0000 C   0  0  0  0  0  0  0  0  0  0  0  0
    5.0013    1.2375    0.0000 O   0  0  0  0  0  0  0  0  0  0  0  0
    4.2868    0.0000    0.0000 O   0  0  0  0  0  0  0  0  0  0  0  0
    1.4289    0.0000    0.0000 C   0  0  0  0  0  0  0  0  0  0  0  0
    0.7145   -0.4125    0.0000 C   0  0  0  0  0  0  0  0  0  0  0  0
  2  1  1  1  0  0  0
  2  3  1  0  0  0  0
  3  4  2  0  0  0  0
  4  5  1  0  0  0  0
  5  6  1  1  0  0  0
  6  7  1  0  0  0  0
  7  8  1  0  0  0  0
  8  9  1  6  0  0  0
  8 10  1  0  0  0  0
 10 11  1  0  0  0  0
 10 12  2  0  0  0  0
  5 13  1  0  0  0  0
 13 14  2  0  0  0  0
  2 14  1  0  0  0  0
M  END
> <DRUGBANK_ID>
DB02725

> <DRUG_GROUPS>
experimental

> <GENERIC_NAME>
2-Amino-4-(4-Amino-Cyclohexa-2,5-Dienyl)-Butyric Acid

> <CHEMICAL_FORMULA>
C10H16N2O2

> <MOLECULAR_WEIGHT>
196.2462

> <EXACT_MASS>
196.121177766

> <IUPAC_NAME>
(2S)-2-amino-4-[(1s,4s)-4-aminocyclohexa-2,5-dien-1-yl]butanoic acid

> <IUPAC_TRADITIONAL_NAME>
(2S)-2-amino-4-[(1s,4s)-4-aminocyclohexa-2,5-dien-1-yl]butanoic acid

> <INCHI_IDENTIFIER>
InChI=1S/C10H16N2O2/c11-8-4-1-7(2-5-8)3-6-9(12)10(13)14/h1-2,4-5,7-9H,3,6,11-12H2,(H,13,14)/t7-,8+,9-/m0/s1

> <INCHI_KEY>
InChIKey=LAJWZJCOWPUSOA-YIZRAAEISA-N

> <SMILES>
N[C@@H](CC[C@@H]1C=C[C@H](N)C=C1)C(O)=O

> <JCHEM_ACCEPTOR_COUNT>
4

> <JCHEM_DONOR_COUNT>
3

> <JCHEM_ACIDIC_PKA>
2.63

> <JCHEM_BASIC_PKA>
9.74

> <JCHEM_PHYSIOLOGICAL_CHARGE>
1

> <ALOGPS_LOGP>
-2.3

> <JCHEM_LOGP>
-2.6

> <ALOGPS_LOGS>
-1.7

> <JCHEM_POLARIZABILITY>
20.59

> <JCHEM_POLAR_SURFACE_AREA>
89.34

> <JCHEM_REFRACTIVITY>
56.02

> <JCHEM_ROTATABLE_BOND_COUNT>
4

> <ALOGPS_SOLUBILITY>
4.00e+00 g/l __ 

$$$$
