
  Mrv0541 02231216012D          

 57 63  0  0  1  0            999 V2000
   -1.1043   -2.3841    0.0000 C   0  0  0  0  0  0  0  0  0  0  0  0
   -1.9031   -2.1776    0.0000 C   0  0  2  0  0  0  0  0  0  0  0  0
   -2.4812   -2.7662    0.0000 C   0  0  0  0  0  0  0  0  0  0  0  0
   -3.2800   -2.5597    0.0000 C   0  0  0  0  0  0  0  0  0  0  0  0
   -3.5006   -1.7647    0.0000 C   0  0  2  0  0  0  0  0  0  0  0  0
   -4.0787   -2.3533    0.0000 C   0  0  0  0  0  0  0  0  0  0  0  0
   -4.8775   -2.1468    0.0000 C   0  0  0  0  0  0  0  0  0  0  0  0
   -5.0981   -1.3518    0.0000 C   0  0  0  0  0  0  0  0  0  0  0  0
   -4.5199   -0.7633    0.0000 C   0  0  0  0  0  0  0  0  0  0  0  0
   -3.7211   -0.9698    0.0000 O   0  0  0  0  0  0  0  0  0  0  0  0
   -2.9224   -1.1762    0.0000 O   0  0  0  0  0  0  0  0  0  0  0  0
   -2.1236   -1.3827    0.0000 C   0  0  1  0  0  0  0  0  0  0  0  0
   -1.5455   -0.7942    0.0000 C   0  0  1  0  0  0  0  0  0  0  0  0
   -1.7661    0.0008    0.0000 C   0  0  0  0  0  0  0  0  0  0  0  0
   -0.7467   -1.0006    0.0000 C   0  0  0  0  0  0  0  0  0  0  0  0
   -0.1686   -0.4121    0.0000 C   0  0  2  0  0  0  0  0  0  0  0  0
   -0.3891    0.3829    0.0000 O   0  0  0  0  0  0  0  0  0  0  0  0
    0.6302   -0.6186    0.0000 C   0  0  2  0  0  0  0  0  0  0  0  0
    1.2084   -0.0300    0.0000 O   0  0  0  0  0  0  0  0  0  0  0  0
    2.0071   -0.2365    0.0000 C   0  0  2  0  0  0  0  0  0  0  0  0
    2.5853    0.3520    0.0000 C   0  0  0  0  0  0  0  0  0  0  0  0
    3.3840    0.1456    0.0000 C   0  0  0  0  0  0  0  0  0  0  0  0
    3.6046   -0.6494    0.0000 C   0  0  1  0  0  0  0  0  0  0  0  0
    4.2411   -0.1245    0.0000 C   0  0  0  0  0  0  0  0  0  0  0  0
    4.9370   -0.5677    0.0000 C   0  0  0  0  0  0  0  0  0  0  0  0
    4.7305   -1.3665    0.0000 C   0  0  2  0  0  0  0  0  0  0  0  0
    3.9071   -1.4169    0.0000 O   0  0  0  0  0  0  0  0  0  0  0  0
    5.2554   -2.0030    0.0000 C   0  0  0  0  0  0  0  0  0  0  0  0
    4.9666   -2.7758    0.0000 C   0  0  0  0  0  0  0  0  0  0  0  0
    5.4914   -3.4123    0.0000 C   0  0  1  0  0  0  0  0  0  0  0  0
    5.2026   -4.1851    0.0000 C   0  0  0  0  0  0  0  0  0  0  0  0
    6.3051   -3.2760    0.0000 C   0  0  1  0  0  0  0  0  0  0  0  0
    6.5939   -2.5032    0.0000 C   0  0  0  0  0  0  0  0  0  0  0  0
    7.4076   -2.3669    0.0000 C   0  0  0  0  0  0  0  0  0  0  0  0
    7.6964   -1.5941    0.0000 C   0  0  0  0  0  0  0  0  0  0  0  0
    7.9324   -3.0034    0.0000 C   0  0  0  0  0  0  0  0  0  0  0  0
    7.6436   -3.7762    0.0000 C   0  0  1  0  0  0  0  0  0  0  0  0
    8.4573   -3.6400    0.0000 O   0  0  0  0  0  0  0  0  0  0  0  0
    8.9821   -4.2765    0.0000 C   0  0  2  0  0  0  0  0  0  0  0  0
    8.6933   -5.0493    0.0000 C   0  0  0  0  0  0  0  0  0  0  0  0
    7.8797   -5.1855    0.0000 C   0  0  0  0  0  0  0  0  0  0  0  0
    7.3548   -4.5490    0.0000 C   0  0  2  0  0  0  0  0  0  0  0  0
    6.5412   -4.6853    0.0000 O   0  0  0  0  0  0  0  0  0  0  0  0
    9.7958   -4.1402    0.0000 C   0  0  0  0  0  0  0  0  0  0  0  0
   10.3207   -4.7767    0.0000 C   0  0  1  0  0  0  0  0  0  0  0  0
    9.6842   -5.3016    0.0000 C   0  0  0  0  0  0  0  0  0  0  0  0
   10.9572   -4.2518    0.0000 O   0  0  0  0  0  0  0  0  0  0  0  0
   10.8455   -5.4132    0.0000 C   0  0  0  0  0  0  0  0  0  0  0  0
   11.6592   -5.2769    0.0000 O   0  0  0  0  0  0  0  0  0  0  0  0
   10.5567   -6.1860    0.0000 O   0  0  0  0  0  0  0  0  0  0  0  0
    6.8300   -3.9125    0.0000 O   0  0  0  0  0  0  0  0  0  0  0  0
    3.0264   -1.2379    0.0000 O   0  0  0  0  0  0  0  0  0  0  0  0
    2.2277   -1.0314    0.0000 C   0  0  2  0  0  0  0  0  0  0  0  0
    1.6495   -1.6200    0.0000 C   0  0  1  0  0  0  0  0  0  0  0  0
    1.8701   -2.4149    0.0000 O   0  0  0  0  0  0  0  0  0  0  0  0
    0.8508   -1.4135    0.0000 C   0  0  0  0  0  0  0  0  0  0  0  0
    0.2726   -2.0020    0.0000 C   0  0  0  0  0  0  0  0  0  0  0  0
  2  1  1  6  0  0  0
  2  3  1  0  0  0  0
  3  4  1  0  0  0  0
  4  5  1  0  0  0  0
  5  6  1  0  0  0  0
  6  7  1  0  0  0  0
  7  8  1  0  0  0  0
  8  9  1  0  0  0  0
  9 10  1  0  0  0  0
  5 10  1  0  0  0  0
  5 11  1  1  0  0  0
 11 12  1  0  0  0  0
  2 12  1  0  0  0  0
 12 13  1  1  0  0  0
 13 14  1  1  0  0  0
 13 15  1  0  0  0  0
 15 16  1  0  0  0  0
 16 17  1  6  0  0  0
 18 16  1  6  0  0  0
 18 19  1  0  0  0  0
 20 19  1  6  0  0  0
 20 21  1  0  0  0  0
 21 22  1  0  0  0  0
 22 23  1  0  0  0  0
 23 24  1  0  0  0  0
 24 25  1  0  0  0  0
 25 26  1  0  0  0  0
 26 27  1  0  0  0  0
 23 27  1  1  0  0  0
 26 28  1  1  0  0  0
 28 29  2  0  0  0  0
 29 30  1  0  0  0  0
 30 31  1  6  0  0  0
 32 30  1  1  0  0  0
 32 33  1  0  0  0  0
 33 34  1  0  0  0  0
 34 35  1  0  0  0  0
 34 36  2  0  0  0  0
 36 37  1  0  0  0  0
 37 38  1  6  0  0  0
 38 39  1  0  0  0  0
 39 40  1  0  0  0  0
 40 41  1  0  0  0  0
 41 42  1  0  0  0  0
 37 42  1  0  0  0  0
 42 43  1  6  0  0  0
 39 44  1  1  0  0  0
 44 45  1  0  0  0  0
 45 46  1  6  0  0  0
 45 47  1  6  0  0  0
 45 48  1  0  0  0  0
 48 49  1  0  0  0  0
 48 50  2  0  0  0  0
 37 51  1  0  0  0  0
 32 51  1  0  0  0  0
 23 52  1  0  0  0  0
 53 52  1  6  0  0  0
 20 53  1  0  0  0  0
 53 54  1  0  0  0  0
 54 55  1  1  0  0  0
 54 56  1  0  0  0  0
 18 56  1  0  0  0  0
 56 57  2  0  0  0  0
M  END
> <DRUGBANK_ID>
DB02169

> <DRUG_GROUPS>
experimental

> <GENERIC_NAME>
9,10-Deepithio-9,10-Didehydroacanthifolicin

> <CHEMICAL_FORMULA>
C44H68O13

> <MOLECULAR_WEIGHT>
805.0029

> <EXACT_MASS>
804.465992262

> <IUPAC_NAME>
(2R)-3-[(2R,5S,6S,8R)-8-[(2R,3E)-4-[(2S,4'aR,5S,6'R,8'S,8'aR)-8'-hydroxy-6'-[(1S,3S)-1-hydroxy-3-[(2R,3R,6R)-3-methyl-1,7-dioxaspiro[5.5]undecan-2-yl]butyl]-7'-methylidene-hexahydro-3'H-spiro[oxolane-2,2'-pyrano[3,2-b]pyran]-5-yl]but-3-en-2-yl]-5-hydroxy-10-methyl-1,7-dioxaspiro[5.5]undec-10-en-2-yl]-2-hydroxy-2-methylpropanoic acid

> <IUPAC_TRADITIONAL_NAME>
(2R)-3-[(2R,5S,6S,8R)-8-[(2R,3E)-4-[(2S,4'aR,5S,6'R,8'S,8'aR)-8'-hydroxy-6'-[(1S,3S)-1-hydroxy-3-[(2R,3R,6R)-3-methyl-1,7-dioxaspiro[5.5]undecan-2-yl]butyl]-7'-methylidene-hexahydrospiro[oxolane-2,2'-pyrano[3,2-b]pyran]-5-yl]but-3-en-2-yl]-5-hydroxy-10-methyl-1,7-dioxaspiro[5.5]undec-10-en-2-yl]-2-hydroxy-2-methylpropanoic acid

> <INCHI_IDENTIFIER>
InChI=1S/C44H68O13/c1-25-21-34(55-44(23-25)35(46)12-11-31(54-44)24-41(6,50)40(48)49)26(2)9-10-30-14-18-43(53-30)19-15-33-39(57-43)36(47)29(5)38(52-33)32(45)22-28(4)37-27(3)13-17-42(56-37)16-7-8-20-51-42/h9-10,23,26-28,30-39,45-47,50H,5,7-8,11-22,24H2,1-4,6H3,(H,48,49)/b10-9+/t26-,27-,28+,30-,31-,32+,33-,34-,35+,36+,37-,38-,39+,41-,42-,43+,44+/m1/s1

> <INCHI_KEY>
InChIKey=QNDVLZJODHBUFM-NHKYITFXSA-N

> <SMILES>
C[C@@H](C[C@H](O)[C@@H]1O[C@@H]2CC[C@]3(CC[C@H](O3)\C=C\[C@@H](C)[C@H]3CC(C)=C[C@]4(O[C@@H](C[C@@](C)(O)C(O)=O)CC[C@@H]4O)O3)O[C@@H]2[C@@H](O)C1=C)[C@@H]1O[C@]2(CCCCO2)CC[C@H]1C

> <JCHEM_ACCEPTOR_COUNT>
13

> <JCHEM_DONOR_COUNT>
5

> <JCHEM_ACIDIC_PKA>
3.76

> <JCHEM_BASIC_PKA>
-3.2

> <JCHEM_PHYSIOLOGICAL_CHARGE>
-1

> <ALOGPS_LOGP>
2.73

> <JCHEM_LOGP>
5.13

> <ALOGPS_LOGS>
-5.3

> <JCHEM_POLARIZABILITY>
88.85

> <JCHEM_POLAR_SURFACE_AREA>
182.83

> <JCHEM_REFRACTIVITY>
210.78

> <JCHEM_ROTATABLE_BOND_COUNT>
10

> <ALOGPS_SOLUBILITY>
4.42e-03 g/l __ 

$$$$
