
  Mrv0541 02231216012D          

 39 46  0  0  0  0            999 V2000
    0.8839   -0.8150    0.0000 C    0  0  0  0  0  0  0  0  0  0  0  0
    1.5815   -0.3746    0.0000 C    0  0  0  0  0  0  0  0  0  0  0  0
    1.6353    0.4486    0.0000 C    0  0  0  0  0  0  0  0  0  0  0  0
    2.4348    0.6519    0.0000 C    0  0  0  0  0  0  0  0  0  0  0  0
    2.9554    1.5893    0.0000 C    0  0  0  0  0  0  0  0  0  0  0  0
    3.6697    2.0020    0.0000 C    0  0  0  0  0  0  0  0  0  0  0  0
    4.3042    1.4746    0.0000 N    0  3  0  0  0  0  0  0  0  0  0  0
    5.0018    1.9151    0.0000 C    0  0  0  0  0  0  0  0  0  0  0  0
    5.9392    1.3945    0.0000 C    0  0  0  0  0  0  0  0  0  0  0  0
    6.3519    0.6802    0.0000 C    0  0  0  0  0  0  0  0  0  0  0  0
    7.1183    0.3746    0.0000 C    0  0  0  0  0  0  0  0  0  0  0  0
    7.8159    0.8150    0.0000 C    0  0  0  0  0  0  0  0  0  0  0  0
    8.5461    0.4311    0.0000 C    0  0  0  0  0  0  0  0  0  0  0  0
    9.2437    0.8715    0.0000 C    0  0  0  0  0  0  0  0  0  0  0  0
    9.9739    0.4875    0.0000 O    0  0  0  0  0  0  0  0  0  0  0  0
    9.2111    1.6958    0.0000 O    0  0  0  0  0  0  0  0  0  0  0  0
    7.0645   -0.4486    0.0000 C    0  0  0  0  0  0  0  0  0  0  0  0
    7.6989   -0.9760    0.0000 C    0  0  0  0  0  0  0  0  0  0  0  0
    6.2649   -0.6519    0.0000 C    0  0  0  0  0  0  0  0  0  0  0  0
    5.7444   -1.5893    0.0000 C    0  0  0  0  0  0  0  0  0  0  0  0
    5.0300   -2.0020    0.0000 C    0  0  0  0  0  0  0  0  0  0  0  0
    4.7245   -2.7684    0.0000 C    0  0  0  0  0  0  0  0  0  0  0  0
    5.1649   -3.4660    0.0000 C    0  0  0  0  0  0  0  0  0  0  0  0
    3.9013   -2.7146    0.0000 C    0  0  0  0  0  0  0  0  0  0  0  0
    3.6980   -1.9151    0.0000 C    0  0  0  0  0  0  0  0  0  0  0  0
    4.3956   -1.4746    0.0000 N    0  3  0  0  0  0  0  0  0  0  0  0
    4.3499    0.0000    0.0000 Co   0  1  0  0  0  0  0  0  0  0  0  0
    2.8752   -0.0457    0.0000 N    0  5  0  0  0  0  0  0  0  0  0  0
    2.3479   -0.6802    0.0000 C    0  0  0  0  0  0  0  0  0  0  0  0
    2.7605   -1.3945    0.0000 C    0  0  0  0  0  0  0  0  0  0  0  0
    5.8245    0.0457    0.0000 N    0  5  0  0  0  0  0  0  0  0  0  0
    4.7985    2.7146    0.0000 C    0  0  0  0  0  0  0  0  0  0  0  0
    5.3259    3.3490    0.0000 C    0  0  0  0  0  0  0  0  0  0  0  0
    5.0401    4.1230    0.0000 C    0  0  0  0  0  0  0  0  0  0  0  0
    5.5675    4.7574    0.0000 C    0  0  0  0  0  0  0  0  0  0  0  0
    5.2818    5.5313    0.0000 O    0  0  0  0  0  0  0  0  0  0  0  0
    6.3806    4.6179    0.0000 O    0  0  0  0  0  0  0  0  0  0  0  0
    3.9753    2.7684    0.0000 C    0  0  0  0  0  0  0  0  0  0  0  0
    3.5348    3.4660    0.0000 C    0  0  0  0  0  0  0  0  0  0  0  0
  1  2  1  0  0  0  0
  2  3  2  0  0  0  0
  3  4  1  0  0  0  0
  4  5  2  0  0  0  0
  5  6  1  0  0  0  0
  6  7  2  0  0  0  0
  7  8  1  0  0  0  0
  8  9  2  0  0  0  0
  9 10  1  0  0  0  0
 10 11  4  0  0  0  0
 11 12  1  0  0  0  0
 12 13  1  0  0  0  0
 13 14  1  0  0  0  0
 14 15  1  0  0  0  0
 14 16  2  0  0  0  0
 11 17  4  0  0  0  0
 17 18  1  0  0  0  0
 17 19  4  0  0  0  0
 19 20  1  0  0  0  0
 20 21  2  0  0  0  0
 21 22  1  0  0  0  0
 22 23  1  0  0  0  0
 22 24  2  0  0  0  0
 24 25  1  0  0  0  0
 25 26  2  0  0  0  0
 21 26  1  0  0  0  0
 26 27  1  0  0  0  0
  7 27  1  0  0  0  0
 27 28  1  0  0  0  0
  4 28  1  0  0  0  0
 28 29  1  0  0  0  0
  2 29  1  0  0  0  0
 29 30  2  0  0  0  0
 25 30  1  0  0  0  0
 27 31  1  0  0  0  0
 10 31  4  0  0  0  0
 19 31  4  0  0  0  0
  8 32  1  0  0  0  0
 32 33  1  0  0  0  0
 33 34  1  0  0  0  0
 34 35  1  0  0  0  0
 35 36  1  0  0  0  0
 35 37  2  0  0  0  0
 32 38  2  0  0  0  0
  6 38  1  0  0  0  0
 38 39  1  0  0  0  0
M  END
> <DRUGBANK_ID>
DB02173

> <DRUG_GROUPS>
experimental

> <GENERIC_NAME>
Co(Iii)-(Deuteroporphyrin Ix)

> <CHEMICAL_FORMULA>
C30H28CoN4O4

> <MOLECULAR_WEIGHT>
567.5009

> <EXACT_MASS>
567.144255598

> <INCHI_IDENTIFIER>
InChI=1S/C30H28N4O4.Co/c1-15-9-20-12-25-17(3)21(5-7-29(35)36)27(33-25)14-28-22(6-8-30(37)38)18(4)26(34-28)13-24-16(2)10-19(32-24)11-23(15)31-20;/h9-14H,5-8H2,1-4H3,(H,35,36)(H,37,38);/q-1;+4/b19-11-,20-12-,23-11-,24-13-,25-12-,26-13-,27-14-,28-14-;

> <INCHI_KEY>
InChIKey=OKXLJHREPDQXNB-RWRCOHKGSA-N

> <SMILES>
CC1=CC2=CC3=[N+]4C(=Cc5c(CCC(O)=O)c(C)c6C=C7C(C)=CC8=[N+]7[Co+3]4([N-]2C1=C8)[n-]56)C(CCC(O)=O)=C3C

> <JCHEM_ACCEPTOR_COUNT>
0

> <JCHEM_DONOR_COUNT>
0

> <JCHEM_PHYSIOLOGICAL_CHARGE>
3

> <ALOGPS_LOGP>
0.64

> <ALOGPS_LOGS>
-6.5

> <JCHEM_POLARIZABILITY>
61.41

> <JCHEM_POLAR_SURFACE_AREA>
90.12

> <JCHEM_REFRACTIVITY>
151.31

> <JCHEM_ROTATABLE_BOND_COUNT>
6

> <ALOGPS_SOLUBILITY>
2.12e-04 g/l __ 

$$$$
