
  Mrv0541 02231216352D          

  9  9  0  0  0  0            999 V2000
    2.1913    1.6913    0.0000 C   0  0  0  0  0  0  0  0  0  0  0  0
    2.0198    0.8843    0.0000 C   0  0  0  0  0  0  0  0  0  0  0  0
    1.2352    0.6294    0.0000 N   0  0  0  0  0  0  0  0  0  0  0  0
    0.9803   -0.1553    0.0000 C   0  0  0  0  0  0  0  0  0  0  0  0
    1.4652   -0.8227    0.0000 O   0  0  0  0  0  0  0  0  0  0  0  0
    0.1553   -0.1553    0.0000 C   0  0  0  0  0  0  0  0  0  0  0  0
   -0.0997    0.6294    0.0000 C   0  0  0  0  0  0  0  0  0  0  0  0
    0.5678    1.1143    0.0000 C   0  0  0  0  0  0  0  0  0  0  0  0
    0.5678    1.9393    0.0000 O   0  0  0  0  0  0  0  0  0  0  0  0
  1  2  1  0  0  0  0
  2  3  1  0  0  0  0
  3  4  1  0  0  0  0
  4  5  2  0  0  0  0
  4  6  1  0  0  0  0
  6  7  2  0  0  0  0
  7  8  1  0  0  0  0
  3  8  1  0  0  0  0
  8  9  2  0  0  0  0
M  END
> <DRUGBANK_ID>
DB02967

> <DRUG_GROUPS>
experimental

> <GENERIC_NAME>
N-Ethylmaleimide

> <CHEMICAL_FORMULA>
C6H7NO2

> <MOLECULAR_WEIGHT>
125.1253

> <EXACT_MASS>
125.047678473

> <IUPAC_NAME>
1-ethyl-2,5-dihydro-1H-pyrrole-2,5-dione

> <IUPAC_TRADITIONAL_NAME>
N-ethylmaleimide

> <INCHI_IDENTIFIER>
InChI=1S/C6H7NO2/c1-2-7-5(8)3-4-6(7)9/h3-4H,2H2,1H3

> <INCHI_KEY>
InChIKey=HDFGOPSGAURCEO-UHFFFAOYSA-N

> <SMILES>
CCN1C(=O)C=CC1=O

> <JCHEM_ACCEPTOR_COUNT>
2

> <JCHEM_DONOR_COUNT>
0

> <JCHEM_BASIC_PKA>
-4.3

> <JCHEM_PHYSIOLOGICAL_CHARGE>
0

> <ALOGPS_LOGP>
0.02

> <JCHEM_LOGP>
-0.055

> <ALOGPS_LOGS>
0.31

> <JCHEM_POLARIZABILITY>
11.99

> <JCHEM_POLAR_SURFACE_AREA>
37.38

> <JCHEM_REFRACTIVITY>
33

> <JCHEM_ROTATABLE_BOND_COUNT>
1

> <ALOGPS_SOLUBILITY>
2.54e+02 g/l __ 

$$$$
