
  Mrv0541 02231216012D          

 63 65  0  0  1  0            999 V2000
  -24.4662    7.1786    0.0000 C   0  0  0  0  0  0  0  0  0  0  0  0
  -23.7681    6.7389    0.0000 C   0  0  0  0  0  0  0  0  0  0  0  0
  -23.0383    7.1236    0.0000 C   0  0  0  0  0  0  0  0  0  0  0  0
  -22.3403    6.6840    0.0000 C   0  0  0  0  0  0  0  0  0  0  0  0
  -21.6105    7.0687    0.0000 C   0  0  0  0  0  0  0  0  0  0  0  0
  -20.9124    6.6290    0.0000 C   0  0  0  0  0  0  0  0  0  0  0  0
  -20.1826    7.0137    0.0000 C   0  0  0  0  0  0  0  0  0  0  0  0
  -19.4845    6.5740    0.0000 C   0  0  0  0  0  0  0  0  0  0  0  0
  -18.7547    6.9588    0.0000 C   0  0  0  0  0  0  0  0  0  0  0  0
  -18.0566    6.5191    0.0000 C   0  0  0  0  0  0  0  0  0  0  0  0
  -17.3268    6.9038    0.0000 C   0  0  0  0  0  0  0  0  0  0  0  0
  -16.6287    6.4641    0.0000 C   0  0  0  0  0  0  0  0  0  0  0  0
  -15.8989    6.8488    0.0000 C   0  0  0  0  0  0  0  0  0  0  0  0
  -15.2008    6.4092    0.0000 C   0  0  0  0  0  0  0  0  0  0  0  0
  -15.2326    5.5848    0.0000 O   0  0  0  0  0  0  0  0  0  0  0  0
  -14.4710    6.7939    0.0000 S   0  0  0  0  0  0  0  0  0  0  0  0
  -13.7730    6.3542    0.0000 C   0  0  0  0  0  0  0  0  0  0  0  0
  -13.0431    6.7389    0.0000 C   0  0  0  0  0  0  0  0  0  0  0  0
  -12.3451    6.2992    0.0000 N   0  0  0  0  0  0  0  0  0  0  0  0
  -11.6153    6.6840    0.0000 C   0  0  0  0  0  0  0  0  0  0  0  0
  -11.5835    7.5083    0.0000 O   0  0  0  0  0  0  0  0  0  0  0  0
  -10.9172    6.2443    0.0000 C   0  0  0  0  0  0  0  0  0  0  0  0
  -10.1874    6.6290    0.0000 C   0  0  0  0  0  0  0  0  0  0  0  0
   -9.4893    6.1893    0.0000 N   0  0  0  0  0  0  0  0  0  0  0  0
   -8.7595    6.5740    0.0000 C   0  0  0  0  0  0  0  0  0  0  0  0
   -8.7278    7.3984    0.0000 O   0  0  0  0  0  0  0  0  0  0  0  0
   -8.0614    6.1344    0.0000 C   0  0  1  0  0  0  0  0  0  0  0  0
   -8.0931    5.3100    0.0000 O   0  0  0  0  0  0  0  0  0  0  0  0
   -7.3316    6.5191    0.0000 C   0  0  0  0  0  0  0  0  0  0  0  0
   -6.9469    5.7893    0.0000 C   0  0  0  0  0  0  0  0  0  0  0  0
   -7.7163    7.2489    0.0000 C   0  0  0  0  0  0  0  0  0  0  0  0
   -6.6018    6.9038    0.0000 C   0  0  0  0  0  0  0  0  0  0  0  0
   -5.9037    6.4641    0.0000 O   0  0  0  0  0  0  0  0  0  0  0  0
   -5.1739    6.8488    0.0000 P   0  0  2  0  0  0  0  0  0  0  0  0
   -4.7892    6.1190    0.0000 O   0  0  0  0  0  0  0  0  0  0  0  0
   -5.5586    7.5786    0.0000 O   0  0  0  0  0  0  0  0  0  0  0  0
   -4.4441    7.2336    0.0000 O   0  0  0  0  0  0  0  0  0  0  0  0
   -3.7460    6.7939    0.0000 P   0  0  1  0  0  0  0  0  0  0  0  0
   -4.1857    6.0958    0.0000 O   0  0  0  0  0  0  0  0  0  0  0  0
   -3.3064    7.4920    0.0000 O   0  0  0  0  0  0  0  0  0  0  0  0
   -3.0480    6.3542    0.0000 O   0  0  0  0  0  0  0  0  0  0  0  0
   -2.3181    6.7389    0.0000 C   0  0  0  0  0  0  0  0  0  0  0  0
   -1.6201    6.2992    0.0000 C   0  0  2  0  0  0  0  0  0  0  0  0
   -0.8540    6.6056    0.0000 O   0  0  0  0  0  0  0  0  0  0  0  0
   -0.3260    5.9717    0.0000 C   0  0  2  0  0  0  0  0  0  0  0  0
   -0.7657    5.2736    0.0000 C   0  0  2  0  0  0  0  0  0  0  0  0
   -0.4594    4.5076    0.0000 O   0  0  0  0  0  0  0  0  0  0  0  0
   -1.5655    5.4761    0.0000 C   0  0  1  0  0  0  0  0  0  0  0  0
   -2.1993    4.9480    0.0000 O   0  0  0  0  0  0  0  0  0  0  0  0
   -2.9736    5.2329    0.0000 P   0  0  0  0  0  0  0  0  0  0  0  0
   -2.6886    6.0072    0.0000 O   0  0  0  0  0  0  0  0  0  0  0  0
   -3.2585    4.4587    0.0000 O   0  0  0  0  0  0  0  0  0  0  0  0
   -3.7478    5.5179    0.0000 O   0  0  0  0  0  0  0  0  0  0  0  0
    0.4972    6.0263    0.0000 N   0  0  0  0  0  0  0  0  0  0  0  0
    1.0252    5.3924    0.0000 C   0  0  0  0  0  0  0  0  0  0  0  0
    1.7913    5.6988    0.0000 N   0  0  0  0  0  0  0  0  0  0  0  0
    1.7366    6.5219    0.0000 C   0  0  0  0  0  0  0  0  0  0  0  0
    0.9369    6.7244    0.0000 C   0  0  0  0  0  0  0  0  0  0  0  0
    0.7123    7.5182    0.0000 N   0  0  0  0  0  0  0  0  0  0  0  0
    1.2875    8.1096    0.0000 C   0  0  0  0  0  0  0  0  0  0  0  0
    2.0873    7.9072    0.0000 N   0  0  0  0  0  0  0  0  0  0  0  0
    2.3118    7.1134    0.0000 C   0  0  0  0  0  0  0  0  0  0  0  0
    3.1116    6.9109    0.0000 N   0  0  0  0  0  0  0  0  0  0  0  0
  1  2  1  0  0  0  0
  2  3  1  0  0  0  0
  3  4  1  0  0  0  0
  4  5  1  0  0  0  0
  5  6  1  0  0  0  0
  6  7  1  0  0  0  0
  7  8  1  0  0  0  0
  8  9  1  0  0  0  0
  9 10  1  0  0  0  0
 10 11  1  0  0  0  0
 11 12  1  0  0  0  0
 12 13  1  0  0  0  0
 13 14  1  0  0  0  0
 14 15  2  0  0  0  0
 14 16  1  0  0  0  0
 16 17  1  0  0  0  0
 17 18  1  0  0  0  0
 18 19  1  0  0  0  0
 19 20  1  0  0  0  0
 20 21  2  0  0  0  0
 20 22  1  0  0  0  0
 22 23  1  0  0  0  0
 23 24  1  0  0  0  0
 24 25  1  0  0  0  0
 25 26  2  0  0  0  0
 25 27  1  0  0  0  0
 27 28  1  6  0  0  0
 27 29  1  0  0  0  0
 29 30  1  0  0  0  0
 29 31  1  0  0  0  0
 29 32  1  0  0  0  0
 32 33  1  0  0  0  0
 34 33  1  6  0  0  0
 34 35  1  1  0  0  0
 34 36  2  0  0  0  0
 34 37  1  0  0  0  0
 38 37  1  1  0  0  0
 38 39  1  6  0  0  0
 38 40  2  0  0  0  0
 38 41  1  0  0  0  0
 41 42  1  0  0  0  0
 43 42  1  6  0  0  0
 43 44  1  0  0  0  0
 44 45  1  0  0  0  0
 45 46  1  0  0  0  0
 46 47  1  6  0  0  0
 46 48  1  0  0  0  0
 43 48  1  0  0  0  0
 48 49  1  1  0  0  0
 49 50  1  0  0  0  0
 50 51  1  0  0  0  0
 50 52  1  0  0  0  0
 50 53  2  0  0  0  0
 45 54  1  1  0  0  0
 54 55  1  0  0  0  0
 55 56  2  0  0  0  0
 56 57  1  0  0  0  0
 57 58  2  0  0  0  0
 54 58  1  0  0  0  0
 58 59  1  0  0  0  0
 59 60  2  0  0  0  0
 60 61  1  0  0  0  0
 61 62  2  0  0  0  0
 57 62  1  0  0  0  0
 62 63  1  0  0  0  0
M  END
> <DRUGBANK_ID>
DB02180

> <DRUG_GROUPS>
experimental

> <GENERIC_NAME>
Myristoyl-Coa

> <CHEMICAL_FORMULA>
C35H62N7O17P3S

> <MOLECULAR_WEIGHT>
977.89

> <EXACT_MASS>
977.313573819

> <IUPAC_NAME>
{[(2S,3R,4R,5R)-5-(6-amino-9H-purin-9-yl)-4-hydroxy-2-({[hydroxy({hydroxy[(3S)-3-hydroxy-2,2-dimethyl-3-[(2-{[2-(tetradecanoylsulfanyl)ethyl]carbamoyl}ethyl)carbamoyl]propoxy]phosphoryl}oxy)phosphoryl]oxy}methyl)oxolan-3-yl]oxy}phosphonic acid

> <IUPAC_TRADITIONAL_NAME>
[(2S,3R,4R,5R)-5-(6-aminopurin-9-yl)-4-hydroxy-2-[({hydroxy[hydroxy(3S)-3-hydroxy-2,2-dimethyl-3-[(2-{[2-(tetradecanoylsulfanyl)ethyl]carbamoyl}ethyl)carbamoyl]propoxyphosphoryl]oxyphosphoryl}oxy)methyl]oxolan-3-yl]oxyphosphonic acid

> <INCHI_IDENTIFIER>
InChI=1S/C35H62N7O17P3S/c1-4-5-6-7-8-9-10-11-12-13-14-15-26(44)63-19-18-37-25(43)16-17-38-33(47)30(46)35(2,3)21-56-62(53,54)59-61(51,52)55-20-24-29(58-60(48,49)50)28(45)34(57-24)42-23-41-27-31(36)39-22-40-32(27)42/h22-24,28-30,34,45-46H,4-21H2,1-3H3,(H,37,43)(H,38,47)(H,51,52)(H,53,54)(H2,36,39,40)(H2,48,49,50)/t24-,28+,29-,30+,34+/m0/s1

> <INCHI_KEY>
InChIKey=DUAFKXOFBZQTQE-IXZVNPRYSA-N

> <SMILES>
CCCCCCCCCCCCCC(=O)SCCNC(=O)CCNC(=O)[C@@H](O)C(C)(C)CO[P@](O)(=O)O[P@@](O)(=O)OC[C@@H]1O[C@H]([C@H](O)[C@H]1OP(O)(O)=O)N1C=NC2=C1N=CN=C2N

> <JCHEM_ACCEPTOR_COUNT>
17

> <JCHEM_DONOR_COUNT>
9

> <JCHEM_ACIDIC_PKA>
0.83

> <JCHEM_BASIC_PKA>
4.95

> <JCHEM_PHYSIOLOGICAL_CHARGE>
-4

> <ALOGPS_LOGP>
1.84

> <JCHEM_LOGP>
-1.4

> <ALOGPS_LOGS>
-2.6

> <JCHEM_POLARIZABILITY>
96.74

> <JCHEM_POLAR_SURFACE_AREA>
363.63

> <JCHEM_REFRACTIVITY>
227.45

> <JCHEM_ROTATABLE_BOND_COUNT>
32

> <ALOGPS_SOLUBILITY>
2.21e+00 g/l __ 

$$$$
