
  Mrv0541 02231216322D          

 22 23  0  0  1  0            999 V2000
    0.7145   -0.4125    0.0000 O   0  0  0  0  0  0  0  0  0  0  0  0
    0.7145   -1.2375    0.0000 C   0  0  2  0  0  0  0  0  0  0  0  0
    1.3819   -1.7224    0.0000 C   0  0  1  0  0  0  0  0  0  0  0  0
    2.1665   -1.4675    0.0000 O   0  0  0  0  0  0  0  0  0  0  0  0
    1.1270   -2.5070    0.0000 C   0  0  1  0  0  0  0  0  0  0  0  0
    0.3020   -2.5070    0.0000 O   0  0  0  0  0  0  0  0  0  0  0  0
    0.0470   -1.7224    0.0000 C   0  0  1  0  0  0  0  0  0  0  0  0
   -0.7376   -1.4675    0.0000 C   0  0  0  0  0  0  0  0  0  0  0  0
   -0.9091   -0.6605    0.0000 O   0  0  0  0  0  0  0  0  0  0  0  0
   -1.6937   -0.4056    0.0000 P   0  0  0  0  0  0  0  0  0  0  0  0
   -2.4784   -0.1506    0.0000 O   0  0  0  0  0  0  0  0  0  0  0  0
   -1.9487   -1.1902    0.0000 O   0  0  0  0  0  0  0  0  0  0  0  0
   -1.4388    0.3790    0.0000 O   0  0  0  0  0  0  0  0  0  0  0  0
    1.6119   -3.1745    0.0000 N   0  0  0  0  0  0  0  0  0  0  0  0
    2.4324   -3.0882    0.0000 C   0  0  0  0  0  0  0  0  0  0  0  0
    2.7679   -2.3346    0.0000 O   0  0  0  0  0  0  0  0  0  0  0  0
    2.9173   -3.7557    0.0000 N   0  0  0  0  0  0  0  0  0  0  0  0
    2.5817   -4.5094    0.0000 C   0  0  0  0  0  0  0  0  0  0  0  0
    3.0667   -5.1768    0.0000 O   0  0  0  0  0  0  0  0  0  0  0  0
    1.7613   -4.5956    0.0000 C   0  0  0  0  0  0  0  0  0  0  0  0
    1.2763   -3.9282    0.0000 C   0  0  0  0  0  0  0  0  0  0  0  0
    0.4559   -4.0144    0.0000 O   0  0  0  0  0  0  0  0  0  0  0  0
  2  1  1  6  0  0  0
  2  3  1  0  0  0  0
  3  4  1  1  0  0  0
  3  5  1  0  0  0  0
  5  6  1  0  0  0  0
  6  7  1  0  0  0  0
  2  7  1  0  0  0  0
  7  8  1  1  0  0  0
  8  9  1  0  0  0  0
  9 10  1  0  0  0  0
 10 11  1  0  0  0  0
 10 12  1  0  0  0  0
 10 13  2  0  0  0  0
  5 14  1  6  0  0  0
 14 15  1  0  0  0  0
 15 16  2  0  0  0  0
 15 17  1  0  0  0  0
 17 18  1  0  0  0  0
 18 19  2  0  0  0  0
 18 20  1  0  0  0  0
 20 21  2  0  0  0  0
 14 21  1  0  0  0  0
 21 22  1  0  0  0  0
M  END
> <DRUGBANK_ID>
DB02890

> <DRUG_GROUPS>
experimental

> <GENERIC_NAME>
6-Hydroxyuridine-5'-Phosphate

> <CHEMICAL_FORMULA>
C9H13N2O10P

> <MOLECULAR_WEIGHT>
340.1807

> <EXACT_MASS>
340.030781158

> <IUPAC_NAME>
{[(2S,3R,4R,5R)-3,4-dihydroxy-5-(6-hydroxy-2,4-dioxo-1,2,3,4-tetrahydropyrimidin-1-yl)oxolan-2-yl]methoxy}phosphonic acid

> <IUPAC_TRADITIONAL_NAME>
[(2S,3R,4R,5R)-3,4-dihydroxy-5-(6-hydroxy-2,4-dioxo-3H-pyrimidin-1-yl)oxolan-2-yl]methoxyphosphonic acid

> <INCHI_IDENTIFIER>
InChI=1S/C9H13N2O10P/c12-4-1-5(13)11(9(16)10-4)8-7(15)6(14)3(21-8)2-20-22(17,18)19/h1,3,6-8,13-15H,2H2,(H,10,12,16)(H2,17,18,19)/t3-,6-,7+,8+/m0/s1

> <INCHI_KEY>
InChIKey=UDOBICLZEKUKCV-YHSFNTFWSA-N

> <SMILES>
O[C@@H]1[C@@H](O)[C@@H](O[C@H]1COP(O)(O)=O)N1C(=O)NC(=O)C=C1O

> <JCHEM_ACCEPTOR_COUNT>
9

> <JCHEM_DONOR_COUNT>
6

> <JCHEM_ACIDIC_PKA>
1.23

> <JCHEM_BASIC_PKA>
-3.7

> <JCHEM_PHYSIOLOGICAL_CHARGE>
-3

> <ALOGPS_LOGP>
-2

> <JCHEM_LOGP>
-2.4

> <ALOGPS_LOGS>
-1.5

> <JCHEM_POLARIZABILITY>
27.22

> <JCHEM_POLAR_SURFACE_AREA>
186.09

> <JCHEM_REFRACTIVITY>
74.72

> <JCHEM_ROTATABLE_BOND_COUNT>
4

> <ALOGPS_SOLUBILITY>
1.04e+01 g/l __ 

$$$$
