
  Mrv0541 02231216322D          

 13 15  0  0  0  0            999 V2000
    4.7364    1.3241    0.0000 C   0  0  0  0  0  0  0  0  0  0  0  0
    4.9758    0.5346    0.0000 C   0  0  0  0  0  0  0  0  0  0  0  0
    5.7792    0.3472    0.0000 C   0  0  0  0  0  0  0  0  0  0  0  0
    6.0186   -0.4423    0.0000 C   0  0  0  0  0  0  0  0  0  0  0  0
    5.4546   -1.0444    0.0000 C   0  0  0  0  0  0  0  0  0  0  0  0
    4.6512   -0.8570    0.0000 C   0  0  0  0  0  0  0  0  0  0  0  0
    4.4118   -0.0675    0.0000 C   0  0  0  0  0  0  0  0  0  0  0  0
    3.5869   -0.0513    0.0000 N   0  0  0  0  0  0  0  0  0  0  0  0
    2.9292    0.4467    0.0000 C   0  0  0  0  0  0  0  0  0  0  0  0
    2.2523   -0.0250    0.0000 N   0  0  0  0  0  0  0  0  0  0  0  0
    2.4917   -0.8145    0.0000 N   0  3  0  0  0  0  0  0  0  0  0  0
    3.3166   -0.8307    0.0000 C   0  0  0  0  0  0  0  0  0  0  0  0
    3.9743   -1.3287    0.0000 S   0  0  0  0  0  0  0  0  0  0  0  0
  1  2  1  0  0  0  0
  2  3  2  0  0  0  0
  3  4  1  0  0  0  0
  4  5  2  0  0  0  0
  5  6  1  0  0  0  0
  6  7  2  0  0  0  0
  2  7  1  0  0  0  0
  7  8  1  0  0  0  0
  8  9  1  0  0  0  0
  9 10  2  0  0  0  0
 10 11  1  0  0  0  0
 11 12  2  0  0  0  0
  8 12  1  0  0  0  0
 12 13  1  0  0  0  0
  6 13  1  0  0  0  0
M  END
> <DRUGBANK_ID>
DB02891

> <DRUG_GROUPS>
experimental

> <GENERIC_NAME>
Tricyclazole

> <CHEMICAL_FORMULA>
C9H8N3S

> <MOLECULAR_WEIGHT>
190.245

> <EXACT_MASS>
190.043892961

> <IUPAC_NAME>
12-methyl-7-thia-2,4,5-triazatricyclo[6.4.0.0^{2,6}]dodeca-1(12),3,5,8,10-pentaen-5-ium

> <IUPAC_TRADITIONAL_NAME>
tricyclazole

> <INCHI_IDENTIFIER>
InChI=1S/C9H7N3S/c1-6-3-2-4-7-8(6)12-5-10-11-9(12)13-7/h2-5H,1H3/p+1

> <INCHI_KEY>
InChIKey=DQJCHOQLCLEDLL-UHFFFAOYSA-O

> <SMILES>
CC1=CC=CC2=C1N1C=N[NH+]=C1S2

> <JCHEM_ACCEPTOR_COUNT>
1

> <JCHEM_DONOR_COUNT>
1

> <JCHEM_BASIC_PKA>
0.84

> <JCHEM_PHYSIOLOGICAL_CHARGE>
0

> <ALOGPS_LOGP>
-0.63

> <JCHEM_LOGP>
1.16

> <ALOGPS_LOGS>
-2.5

> <JCHEM_POLARIZABILITY>
19.29

> <JCHEM_POLAR_SURFACE_AREA>
31.44

> <JCHEM_REFRACTIVITY>
64.27

> <JCHEM_ROTATABLE_BOND_COUNT>
0

> <ALOGPS_SOLUBILITY>
6.63e-01 g/l __ 

$$$$
