
  Mrv0541 02231216162D          

 24 26  0  0  1  0            999 V2000
   -3.7027    0.5457    0.0000 C   0  0  0  0  0  0  0  0  0  0  0  0
   -3.7027    1.3707    0.0000 S   0  3  2  0  0  0  0  0  0  0  0  0
   -4.4172    1.7832    0.0000 C   0  0  0  0  0  0  0  0  0  0  0  0
   -5.1317    1.3707    0.0000 C   0  0  0  0  0  0  0  0  0  0  0  0
   -5.8461    1.7832    0.0000 O   0  0  0  0  0  0  0  0  0  0  0  0
   -6.5606    1.3707    0.0000 N   0  0  0  0  0  0  0  0  0  0  0  0
   -2.9883    1.7832    0.0000 C   0  0  0  0  0  0  0  0  0  0  0  0
   -2.2738    1.3707    0.0000 C   0  0  2  0  0  0  0  0  0  0  0  0
   -1.5201    1.7062    0.0000 O   0  0  0  0  0  0  0  0  0  0  0  0
   -0.9681    1.0931    0.0000 C   0  0  2  0  0  0  0  0  0  0  0  0
   -1.3806    0.3787    0.0000 C   0  0  2  0  0  0  0  0  0  0  0  0
   -1.0450   -0.3750    0.0000 O   0  0  0  0  0  0  0  0  0  0  0  0
   -2.1876    0.5502    0.0000 C   0  0  1  0  0  0  0  0  0  0  0  0
   -2.8007   -0.0019    0.0000 O   0  0  0  0  0  0  0  0  0  0  0  0
   -0.1476    1.1794    0.0000 N   0  0  0  0  0  0  0  0  0  0  0  0
    0.4044    0.5663    0.0000 C   0  0  0  0  0  0  0  0  0  0  0  0
    1.1581    0.9018    0.0000 N   0  0  0  0  0  0  0  0  0  0  0  0
    1.0719    1.7223    0.0000 C   0  0  0  0  0  0  0  0  0  0  0  0
    0.2649    1.8938    0.0000 C   0  0  0  0  0  0  0  0  0  0  0  0
    0.0100    2.6785    0.0000 N   0  0  0  0  0  0  0  0  0  0  0  0
    0.5620    3.2915    0.0000 C   0  0  0  0  0  0  0  0  0  0  0  0
    1.3690    3.1200    0.0000 N   0  0  0  0  0  0  0  0  0  0  0  0
    1.6239    2.3354    0.0000 C   0  0  0  0  0  0  0  0  0  0  0  0
    2.4309    2.1639    0.0000 N   0  0  0  0  0  0  0  0  0  0  0  0
  2  1  1  6  0  0  0
  2  3  1  0  0  0  0
  3  4  1  0  0  0  0
  4  5  1  0  0  0  0
  5  6  1  0  0  0  0
  2  7  1  0  0  0  0
  8  7  1  6  0  0  0
  8  9  1  0  0  0  0
  9 10  1  0  0  0  0
 10 11  1  0  0  0  0
 11 12  1  6  0  0  0
 11 13  1  0  0  0  0
  8 13  1  0  0  0  0
 13 14  1  1  0  0  0
 10 15  1  1  0  0  0
 15 16  1  0  0  0  0
 16 17  2  0  0  0  0
 17 18  1  0  0  0  0
 18 19  2  0  0  0  0
 15 19  1  0  0  0  0
 19 20  1  0  0  0  0
 20 21  2  0  0  0  0
 21 22  1  0  0  0  0
 22 23  2  0  0  0  0
 18 23  1  0  0  0  0
 23 24  1  0  0  0  0
M  END
> <DRUGBANK_ID>
DB02523

> <DRUG_GROUPS>
experimental

> <GENERIC_NAME>
5'-[[2-(Aminooxy)Ethyl]Methylsulfonio]-5'-Deoxy-Adenosine

> <SYNONYMS>


> <CHEMICAL_FORMULA>
C13H21N6O4S

> <MOLECULAR_WEIGHT>
357.409

> <EXACT_MASS>
357.13449888

> <IUPAC_NAME>
(2R,3R,4R,5R)-2-(6-amino-9H-purin-9-yl)-5-{[(R)-[2-(aminooxy)ethyl](methyl)sulfaniumyl]methyl}oxolane-3,4-diol

> <IUPAC_TRADITIONAL_NAME>
AAD

> <INCHI_IDENTIFIER>
InChI=1S/C13H21N6O4S/c1-24(3-2-22-15)4-7-9(20)10(21)13(23-7)19-6-18-8-11(14)16-5-17-12(8)19/h5-7,9-10,13,20-21H,2-4,15H2,1H3,(H2,14,16,17)/q+1/t7-,9-,10+,13+,24+/m0/s1

> <INCHI_KEY>
InChIKey=RMAOLICYOBWFLA-ZTXHCXIGSA-N

> <SMILES>
C[S@+](CCON)C[C@@H]1O[C@H]([C@H](O)[C@H]1O)N1C=NC2=C1N=CN=C2N

> <JCHEM_ACCEPTOR_COUNT>
9

> <JCHEM_DONOR_COUNT>
4

> <JCHEM_ACIDIC_PKA>
12.44

> <JCHEM_BASIC_PKA>
5.08

> <JCHEM_PHYSIOLOGICAL_CHARGE>
1

> <ALOGPS_LOGP>
0.43

> <JCHEM_LOGP>
-2.7

> <ALOGPS_LOGS>
-2.3

> <JCHEM_POLARIZABILITY>
35.88

> <JCHEM_POLAR_SURFACE_AREA>
154.56

> <JCHEM_REFRACTIVITY>
88.11

> <JCHEM_ROTATABLE_BOND_COUNT>
6

> <ALOGPS_SOLUBILITY>
1.96e+00 g/l __ 

$$$$
