[NO NAME]
  Mrv0541 04211214082D          
Created with ChemWriter - http://chemwriter.com
 22 25  0  0  1  0            999 V2000
    7.1378    1.9798    0.0000 O   0  0  0  0  0  0  0  0  0  0  0  0
    1.6652    0.1517    0.0000 O   0  0  0  0  0  0  0  0  0  0  0  0
    1.6519   -1.5738    0.0000 O   0  0  0  0  0  0  0  0  0  0  0  0
    6.1009    0.9442    0.0000 C   0  0  1  0  0  0  0  0  0  0  0  0
    6.1009    0.1193    0.0000 C   0  0  0  0  0  0  0  0  0  0  0  0
    5.3864   -0.2932    0.0000 C   0  0  0  0  0  0  0  0  0  0  0  0
    4.6720    0.1193    0.0000 C   0  0  0  0  0  0  0  0  0  0  0  0
    6.8815    1.1956    0.0000 C   0  0  2  0  0  0  0  0  0  0  0  0
    5.3864    1.3567    0.0000 C   0  0  0  0  0  0  0  0  0  0  0  0
    6.8815   -0.1321    0.0000 C   0  0  0  0  0  0  0  0  0  0  0  0
    4.6720    0.9442    0.0000 C   0  0  0  0  0  0  0  0  0  0  0  0
    7.3629    0.5318    0.0000 C   0  0  0  0  0  0  0  0  0  0  0  0
    5.3997   -1.1524    0.0000 C   0  0  0  0  0  0  0  0  0  0  0  0
    6.1009    1.7692    0.0000 C   0  0  0  0  0  0  0  0  0  0  0  0
    3.9213   -0.2988    0.0000 C   0  0  0  0  0  0  0  0  0  0  0  0
    4.6589   -1.5878    0.0000 C   0  0  0  0  0  0  0  0  0  0  0  0
    3.9147   -1.1581    0.0000 C   0  0  0  0  0  0  0  0  0  0  0  0
    3.1567    0.1665    0.0000 C   0  0  0  0  0  0  0  0  0  0  0  0
    3.1430   -1.6116    0.0000 C   0  0  0  0  0  0  0  0  0  0  0  0
    2.3748   -0.2690    0.0000 C   0  0  0  0  0  0  0  0  0  0  0  0
    2.3678   -1.1641    0.0000 C   0  0  0  0  0  0  0  0  0  0  0  0
    1.6747    0.9766    0.0000 C   0  0  0  0  0  0  0  0  0  0  0  0
  8  1  1  1  0  0  0
  2 20  1  0  0  0  0
  2 22  1  0  0  0  0
  3 21  1  0  0  0  0
  4  5  1  0  0  0  0
  4  8  1  0  0  0  0
  4  9  1  0  0  0  0
  4 14  1  1  0  0  0
  5  6  1  0  0  0  0
  5 10  1  0  0  0  0
  6  7  1  0  0  0  0
  6 13  1  0  0  0  0
  7 11  1  0  0  0  0
  7 15  1  0  0  0  0
  8 12  1  0  0  0  0
  9 11  1  0  0  0  0
 10 12  1  0  0  0  0
 13 16  1  0  0  0  0
 15 17  1  0  0  0  0
 15 18  2  0  0  0  0
 16 17  1  0  0  0  0
 17 19  2  0  0  0  0
 18 20  1  0  0  0  0
 19 21  1  0  0  0  0
 20 21  2  0  0  0  0
M  END
> <DRUGBANK_ID>
DB02342

> <DRUG_GROUPS>
investigational

> <GENERIC_NAME>
2-Methoxyestradiol

> <SYNONYMS>
2-Hydroxyestradol 2-methyl ether

> <BRANDS>


> <CHEMICAL_FORMULA>
C19H26O3

> <MOLECULAR_WEIGHT>
302.4079

> <EXACT_MASS>
302.188194698

> <IUPAC_NAME>
(14S,15S)-4-methoxy-15-methyltetracyclo[8.7.0.0^{2,7}.0^{11,15}]heptadeca-2(7),3,5-triene-5,14-diol

> <IUPAC_TRADITIONAL_NAME>
(14S,15S)-4-methoxy-15-methyltetracyclo[8.7.0.0^{2,7}.0^{11,15}]heptadeca-2(7),3,5-triene-5,14-diol

> <INCHI_IDENTIFIER>
InChI=1S/C19H26O3/c1-19-8-7-12-13(15(19)5-6-18(19)21)4-3-11-9-16(20)17(22-2)10-14(11)12/h9-10,12-13,15,18,20-21H,3-8H2,1-2H3/t12?,13?,15?,18-,19-/m0/s1

> <INCHI_KEY>
InChIKey=CQOQDQWUFQDJMK-WRWXEFHESA-N

> <SMILES>
COC1=C(O)C=C2CCC3C4CC[C@H](O)[C@@]4(C)CCC3C2=C1

> <JCHEM_ACCEPTOR_COUNT>
3

> <JCHEM_DONOR_COUNT>
2

> <JCHEM_ACIDIC_PKA>
10.29

> <JCHEM_BASIC_PKA>
-0.88

> <JCHEM_PHYSIOLOGICAL_CHARGE>
0

> <ALOGPS_LOGP>
3.7

> <JCHEM_LOGP>
3.59

> <ALOGPS_LOGS>
-4.5

> <JCHEM_POLARIZABILITY>
35.21

> <JCHEM_POLAR_SURFACE_AREA>
49.69

> <JCHEM_REFRACTIVITY>
86.37

> <JCHEM_ROTATABLE_BOND_COUNT>
1

> <ALOGPS_SOLUBILITY>
9.68e-03 g/l __ 

$$$$
