
  Mrv0541 02231216142D          

 19 19  0  0  1  0            999 V2000
   -0.4790   -2.2438    0.0000 C   0  0  0  0  0  0  0  0  0  0  0  0
    0.0059   -1.5764    0.0000 C   0  0  0  0  0  0  0  0  0  0  0  0
    0.8264   -1.6626    0.0000 C   0  0  0  0  0  0  0  0  0  0  0  0
   -0.3297   -0.8227    0.0000 C   0  0  0  0  0  0  0  0  0  0  0  0
    0.1553   -0.1553    0.0000 C   0  0  0  0  0  0  0  0  0  0  0  0
   -0.0997    0.6294    0.0000 N   0  0  0  0  0  0  0  0  0  0  0  0
    0.5678    1.1143    0.0000 C   0  0  2  0  0  0  0  0  0  0  0  0
    1.1198    1.7274    0.0000 O   0  0  0  0  0  0  0  0  0  0  0  0
    0.0157    1.7274    0.0000 C   0  0  2  0  0  0  0  0  0  0  0  0
    0.2707    2.5120    0.0000 N   0  0  0  0  0  0  0  0  0  0  0  0
   -0.7912    1.5559    0.0000 C   0  0  2  0  0  0  0  0  0  0  0  0
   -1.0462    0.7712    0.0000 C   0  0  0  0  0  0  0  0  0  0  0  0
   -1.3433    2.1689    0.0000 O   0  0  0  0  0  0  0  0  0  0  0  0
    1.2352    0.6294    0.0000 N   0  0  0  0  0  0  0  0  0  0  0  0
    2.0198    0.8843    0.0000 C   0  0  0  0  0  0  0  0  0  0  0  0
    2.1913    1.6913    0.0000 C   0  0  0  0  0  0  0  0  0  0  0  0
    2.9760    1.9462    0.0000 O   0  0  0  0  0  0  0  0  0  0  0  0
    0.9803   -0.1553    0.0000 C   0  0  0  0  0  0  0  0  0  0  0  0
    1.4652   -0.8227    0.0000 O   0  0  0  0  0  0  0  0  0  0  0  0
  1  2  1  0  0  0  0
  2  3  1  0  0  0  0
  2  4  1  0  0  0  0
  4  5  1  0  0  0  0
  5  6  2  0  0  0  0
  6  7  1  0  0  0  0
  7  8  1  1  0  0  0
  7  9  1  6  0  0  0
  9 10  1  1  0  0  0
  9 11  1  0  0  0  0
 11 12  1  0  0  0  0
 11 13  1  6  0  0  0
  7 14  1  0  0  0  0
 14 15  1  0  0  0  0
 15 16  1  0  0  0  0
 16 17  2  0  0  0  0
 14 18  1  0  0  0  0
  5 18  1  0  0  0  0
 18 19  2  0  0  0  0
M  END
> <DRUGBANK_ID>
DB02488

> <DRUG_GROUPS>
experimental

> <GENERIC_NAME>
1-(2-Ethanone)-2-Hydroxy-2-(1-Amino-2-Methyl-2-Ethanol)-4-(2-Dimethyl)Ethane-Imidazoline-5-One;Chromophore (Thr-Leu-Gly)

> <CHEMICAL_FORMULA>
C12H21N3O4

> <MOLECULAR_WEIGHT>
271.3128

> <EXACT_MASS>
271.153206175

> <IUPAC_NAME>
2-[(2R)-2-[(1R,2S)-1-amino-2-hydroxypropyl]-2-hydroxy-4-(2-methylpropyl)-5-oxo-2,5-dihydro-1H-imidazol-1-yl]acetaldehyde

> <IUPAC_TRADITIONAL_NAME>
chromophore (thr-leu-gly)

> <INCHI_IDENTIFIER>
InChI=1S/C12H21N3O4/c1-7(2)6-9-11(18)15(4-5-16)12(19,14-9)10(13)8(3)17/h5,7-8,10,17,19H,4,6,13H2,1-3H3/t8-,10+,12+/m0/s1

> <INCHI_KEY>
InChIKey=WOCXRZLDLXIZRL-MKPLZMMCSA-N

> <SMILES>
CC(C)CC1=N[C@](O)([C@H](N)[C@H](C)O)N(CC=O)C1=O

> <JCHEM_ACCEPTOR_COUNT>
6

> <JCHEM_DONOR_COUNT>
3

> <JCHEM_ACIDIC_PKA>
10.08

> <JCHEM_BASIC_PKA>
7.36

> <JCHEM_PHYSIOLOGICAL_CHARGE>
1

> <ALOGPS_LOGP>
-0.5

> <JCHEM_LOGP>
-0.54

> <ALOGPS_LOGS>
-1.8

> <JCHEM_POLARIZABILITY>
27.95

> <JCHEM_POLAR_SURFACE_AREA>
116.22

> <JCHEM_REFRACTIVITY>
68.94

> <JCHEM_ROTATABLE_BOND_COUNT>
6

> <ALOGPS_SOLUBILITY>
4.87e+00 g/l __ 

$$$$
