5AP
  Mrv0541 02231215532D          

 27 29  0  0  0  0            999 V2000
    1.5485   -0.0062    0.0000 Cl   0  0  0  0  0  0  0  0  0  0  0  0
    1.5485   -0.8312    0.0000 C    0  0  0  0  0  0  0  0  0  0  0  0
    2.2630   -1.2437    0.0000 C    0  0  0  0  0  0  0  0  0  0  0  0
    2.2630   -2.0687    0.0000 C    0  0  0  0  0  0  0  0  0  0  0  0
    2.9774   -2.4812    0.0000 Cl   0  0  0  0  0  0  0  0  0  0  0  0
    1.5485   -2.4812    0.0000 C    0  0  0  0  0  0  0  0  0  0  0  0
    0.8340   -2.0687    0.0000 C    0  0  0  0  0  0  0  0  0  0  0  0
    0.8340   -1.2437    0.0000 C    0  0  0  0  0  0  0  0  0  0  0  0
    0.1195   -0.8312    0.0000 C    0  0  0  0  0  0  0  0  0  0  0  0
   -0.5949   -1.2437    0.0000 C    0  0  0  0  0  0  0  0  0  0  0  0
   -0.5949   -2.0687    0.0000 C    0  0  0  0  0  0  0  0  0  0  0  0
   -1.3094   -2.4812    0.0000 N    0  0  0  0  0  0  0  0  0  0  0  0
   -1.3094   -0.8312    0.0000 C    0  0  0  0  0  0  0  0  0  0  0  0
   -2.0239   -1.2437    0.0000 N    0  0  0  0  0  0  0  0  0  0  0  0
    0.1195   -0.0062    0.0000 N    0  0  0  0  0  0  0  0  0  0  0  0
   -0.5949    0.4063    0.0000 C    0  0  0  0  0  0  0  0  0  0  0  0
   -1.3094   -0.0062    0.0000 N    0  0  0  0  0  0  0  0  0  0  0  0
   -0.5949    1.2313    0.0000 C    0  0  0  0  0  0  0  0  0  0  0  0
   -1.3094    1.6438    0.0000 C    0  0  0  0  0  0  0  0  0  0  0  0
   -1.3094    2.4688    0.0000 C    0  0  0  0  0  0  0  0  0  0  0  0
   -2.0239    2.8813    0.0000 O    0  0  0  0  0  0  0  0  0  0  0  0
   -2.7383    2.4688    0.0000 C    0  0  0  0  0  0  0  0  0  0  0  0
   -0.5949    2.8813    0.0000 C    0  0  0  0  0  0  0  0  0  0  0  0
    0.1195    2.4688    0.0000 C    0  0  0  0  0  0  0  0  0  0  0  0
    0.1195    1.6438    0.0000 C    0  0  0  0  0  0  0  0  0  0  0  0
    0.8340    2.8813    0.0000 O    0  0  0  0  0  0  0  0  0  0  0  0
    1.5485    2.4688    0.0000 C    0  0  0  0  0  0  0  0  0  0  0  0
  1  2  1  0  0  0  0
  2  3  2  0  0  0  0
  2  8  1  0  0  0  0
  3  4  1  0  0  0  0
  4  5  1  0  0  0  0
  4  6  2  0  0  0  0
  6  7  1  0  0  0  0
  7  8  2  0  0  0  0
  8  9  1  0  0  0  0
  9 10  2  0  0  0  0
  9 15  1  0  0  0  0
 10 11  1  0  0  0  0
 10 13  1  0  0  0  0
 11 12  1  0  0  0  0
 13 14  1  0  0  0  0
 13 17  2  0  0  0  0
 15 16  2  0  0  0  0
 16 17  1  0  0  0  0
 16 18  1  0  0  0  0
 18 19  1  0  0  0  0
 18 25  2  0  0  0  0
 19 20  2  0  0  0  0
 20 21  1  0  0  0  0
 20 23  1  0  0  0  0
 21 22  1  0  0  0  0
 23 24  2  0  0  0  0
 24 25  1  0  0  0  0
 24 26  1  0  0  0  0
 26 27  1  0  0  0  0
M  END
> <DRUGBANK_ID>
DB02004

> <DRUG_GROUPS>
experimental

> <GENERIC_NAME>
5-(Aminomethyl)-6-(2,4-Dichlorophenyl)-2-(3,5-Dimethoxyphenyl)Pyrimidin-4-Amine

> <CHEMICAL_FORMULA>
C19H18Cl2N4O2

> <MOLECULAR_WEIGHT>
405.278

> <EXACT_MASS>
404.080681254

> <IUPAC_NAME>
5-(aminomethyl)-6-(2,4-dichlorophenyl)-2-(3,5-dimethoxyphenyl)pyrimidin-4-amine

> <IUPAC_TRADITIONAL_NAME>
5-(aminomethyl)-6-(2,4-dichlorophenyl)-2-(3,5-dimethoxyphenyl)pyrimidin-4-amine

> <INCHI_IDENTIFIER>
InChI=1S/C19H18Cl2N4O2/c1-26-12-5-10(6-13(8-12)27-2)19-24-17(15(9-22)18(23)25-19)14-4-3-11(20)7-16(14)21/h3-8H,9,22H2,1-2H3,(H2,23,24,25)

> <INCHI_KEY>
InChIKey=RCJFINNFYUNFGH-UHFFFAOYSA-N

> <SMILES>
COC1=CC(=CC(OC)=C1)C1=NC(=C(CN)C(N)=N1)C1=CC=C(Cl)C=C1Cl

> <JCHEM_ACCEPTOR_COUNT>
6

> <JCHEM_DONOR_COUNT>
2

> <JCHEM_ACIDIC_PKA>
19.77

> <JCHEM_BASIC_PKA>
8.8

> <JCHEM_PHYSIOLOGICAL_CHARGE>
1

> <ALOGPS_LOGP>
3.9

> <JCHEM_LOGP>
4.16

> <ALOGPS_LOGS>
-4.5

> <JCHEM_POLARIZABILITY>
41.44

> <JCHEM_POLAR_SURFACE_AREA>
96.28

> <JCHEM_REFRACTIVITY>
118.92

> <JCHEM_ROTATABLE_BOND_COUNT>
5

> <ALOGPS_SOLUBILITY>
1.23e-02 g/l __ 

$$$$
