
  Mrv0541 02231216052D          

 11 10  0  0  1  0            999 V2000
    4.6184    2.6664    0.0000 C   0  0  0  0  0  0  0  0  0  0  0  0
    4.6184    1.8414    0.0000 C   0  0  1  0  0  0  0  0  0  0  0  0
    3.9039    1.4289    0.0000 C   0  0  0  0  0  0  0  0  0  0  0  0
    3.1895    1.8414    0.0000 C   0  0  0  0  0  0  0  0  0  0  0  0
    2.4750    1.4289    0.0000 C   0  0  0  0  0  0  0  0  0  0  0  0
    1.7605    1.8414    0.0000 C   0  0  0  0  0  0  0  0  0  0  0  0
    1.0461    2.2539    0.0000 C   0  0  0  0  0  0  0  0  0  0  0  0
    1.3480    1.1270    0.0000 C   0  0  0  0  0  0  0  0  0  0  0  0
    2.1730    2.5559    0.0000 O   0  0  0  0  0  0  0  0  0  0  0  0
    5.3329    1.4289    0.0000 C   0  0  0  0  0  0  0  0  0  0  0  0
    6.0474    1.8414    0.0000 C   0  0  0  0  0  0  0  0  0  0  0  0
  2  1  1  6  0  0  0
  2  3  1  0  0  0  0
  3  4  1  0  0  0  0
  4  5  1  0  0  0  0
  5  6  1  0  0  0  0
  6  7  1  0  0  0  0
  6  8  1  0  0  0  0
  6  9  1  0  0  0  0
  2 10  1  0  0  0  0
 10 11  2  0  0  0  0
M  END
> <DRUGBANK_ID>
DB02273

> <DRUG_GROUPS>
experimental

> <GENERIC_NAME>
2,6-Dimethyl-7-Octen-2-Ol

> <CHEMICAL_FORMULA>
C10H20O

> <MOLECULAR_WEIGHT>
156.2652

> <EXACT_MASS>
156.151415262

> <IUPAC_NAME>
(6S)-2,6-dimethyloct-7-en-2-ol

> <IUPAC_TRADITIONAL_NAME>
2,6-dimethyl-7-octen-2-ol

> <INCHI_IDENTIFIER>
InChI=1S/C10H20O/c1-5-9(2)7-6-8-10(3,4)11/h5,9,11H,1,6-8H2,2-4H3/t9-/m1/s1

> <INCHI_KEY>
InChIKey=XSNQECSCDATQEL-SECBINFHSA-N

> <SMILES>
C[C@@H](CCCC(C)(C)O)C=C

> <JCHEM_ACCEPTOR_COUNT>
1

> <JCHEM_DONOR_COUNT>
1

> <JCHEM_ACIDIC_PKA>
18.53

> <JCHEM_BASIC_PKA>
-1.3

> <JCHEM_PHYSIOLOGICAL_CHARGE>
0

> <ALOGPS_LOGP>
3.3

> <JCHEM_LOGP>
2.82

> <ALOGPS_LOGS>
-3.2

> <JCHEM_POLARIZABILITY>
19.92

> <JCHEM_POLAR_SURFACE_AREA>
20.23

> <JCHEM_REFRACTIVITY>
49.59

> <JCHEM_ROTATABLE_BOND_COUNT>
5

> <ALOGPS_SOLUBILITY>
1.02e-01 g/l __ 

$$$$
