
  Mrv0541 02231216182D          

  5  4  0  0  1  0            999 V2000
    2.0625   -0.7145    0.0000 C   0  0  0  0  0  0  0  0  0  0  0  0
    1.2375   -0.7145    0.0000 C   0  0  2  0  0  0  0  0  0  0  0  0
    0.8250   -1.4289    0.0000 O   0  0  0  0  0  0  0  0  0  0  0  0
    0.8250    0.0000    0.0000 C   0  0  0  0  0  0  0  0  0  0  0  0
    0.0000    0.0000    0.0000 N   0  3  0  0  0  0  0  0  0  0  0  0
  1  2  1  0  0  0  0
  2  3  1  6  0  0  0
  2  4  1  0  0  0  0
  4  5  1  0  0  0  0
M  END
> <DRUGBANK_ID>
DB02576

> <DRUG_GROUPS>
experimental

> <GENERIC_NAME>
F-Loop of Vitamin B12

> <CHEMICAL_FORMULA>
C3H10NO

> <MOLECULAR_WEIGHT>
76.1176

> <EXACT_MASS>
76.076238947

> <IUPAC_NAME>
(2S)-2-hydroxypropan-1-aminium

> <IUPAC_TRADITIONAL_NAME>
F-loop of vitamin B12

> <INCHI_IDENTIFIER>
InChI=1S/C3H9NO/c1-3(5)2-4/h3,5H,2,4H2,1H3/p+1/t3-/m0/s1

> <INCHI_KEY>
InChIKey=HXKKHQJGJAFBHI-VKHMYHEASA-O

> <SMILES>
C[C@H](O)C[NH3+]

> <JCHEM_ACCEPTOR_COUNT>
1

> <JCHEM_DONOR_COUNT>
2

> <JCHEM_ACIDIC_PKA>
15.3

> <JCHEM_BASIC_PKA>
9.6

> <JCHEM_PHYSIOLOGICAL_CHARGE>
1

> <ALOGPS_LOGP>
-2.7

> <JCHEM_LOGP>
-0.9

> <ALOGPS_LOGS>
-0.05

> <JCHEM_POLARIZABILITY>
8.77

> <JCHEM_POLAR_SURFACE_AREA>
47.87

> <JCHEM_REFRACTIVITY>
31.92

> <JCHEM_ROTATABLE_BOND_COUNT>
1

> <ALOGPS_SOLUBILITY>
9.99e+01 g/l __ 

$$$$
