
  Mrv0541 02231215562D          

 20 22  0  0  1  0            999 V2000
    3.9934    2.4750    0.0000 C   0  0  0  0  0  0  0  0  0  0  0  0
    3.2789    2.0625    0.0000 N   0  0  0  0  0  0  0  0  0  0  0  0
    3.2789    1.2375    0.0000 C   0  0  0  0  0  0  0  0  0  0  0  0
    3.9934    0.8250    0.0000 N   0  0  0  0  0  0  0  0  0  0  0  0
    3.9934    0.0000    0.0000 C   0  0  0  0  0  0  0  0  0  0  0  0
    3.2789   -0.4125    0.0000 N   0  0  0  0  0  0  0  0  0  0  0  0
    2.5645    0.0000    0.0000 C   0  0  0  0  0  0  0  0  0  0  0  0
    1.7798   -0.2549    0.0000 C   0  0  0  0  0  0  0  0  0  0  0  0
    1.2949    0.4125    0.0000 N   0  0  0  0  0  0  0  0  0  0  0  0
    1.7798    1.0799    0.0000 N   0  0  0  0  0  0  0  0  0  0  0  0
    2.5645    0.8250    0.0000 C   0  0  0  0  0  0  0  0  0  0  0  0
    1.5249   -1.0396    0.0000 C   0  0  2  0  0  0  0  0  0  0  0  0
    2.0098   -1.7070    0.0000 O   0  0  0  0  0  0  0  0  0  0  0  0
    1.5249   -2.3744    0.0000 C   0  0  1  0  0  0  0  0  0  0  0  0
    1.7798   -3.1591    0.0000 C   0  0  0  0  0  0  0  0  0  0  0  0
    2.5868   -3.3306    0.0000 O   0  0  0  0  0  0  0  0  0  0  0  0
    0.7403   -2.1195    0.0000 C   0  0  2  0  0  0  0  0  0  0  0  0
    0.0728   -2.6044    0.0000 O   0  0  0  0  0  0  0  0  0  0  0  0
    0.7403   -1.2945    0.0000 C   0  0  1  0  0  0  0  0  0  0  0  0
    0.0728   -0.8096    0.0000 O   0  0  0  0  0  0  0  0  0  0  0  0
  1  2  1  0  0  0  0
  2  3  1  0  0  0  0
  3  4  4  0  0  0  0
  4  5  4  0  0  0  0
  5  6  4  0  0  0  0
  6  7  4  0  0  0  0
  7  8  4  0  0  0  0
  8  9  4  0  0  0  0
  9 10  4  0  0  0  0
 10 11  4  0  0  0  0
  3 11  4  0  0  0  0
  7 11  4  0  0  0  0
 12  8  1  6  0  0  0
 12 13  1  0  0  0  0
 13 14  1  0  0  0  0
 14 15  1  1  0  0  0
 15 16  1  0  0  0  0
 14 17  1  0  0  0  0
 17 18  1  6  0  0  0
 17 19  1  0  0  0  0
 12 19  1  0  0  0  0
 19 20  1  1  0  0  0
M  END
> <DRUGBANK_ID>
DB02066

> <DRUG_GROUPS>
experimental

> <GENERIC_NAME>
N7-Methyl-Formycin A

> <CHEMICAL_FORMULA>
C11H14N5O4

> <MOLECULAR_WEIGHT>
280.26

> <EXACT_MASS>
280.104578961

> <IUPAC_NAME>
(2S,3R,4R,5S)-2-(hydroxymethyl)-5-[7-(methylamino)pyrazolo[4,3-d]pyrimidin-3-yl]oxolane-3,4-diol

> <IUPAC_TRADITIONAL_NAME>
N7-methyl-formycin A

> <INCHI_IDENTIFIER>
InChI=1S/C11H14N5O4/c1-12-11-7-5(13-3-14-11)6(15-16-7)10-9(19)8(18)4(2-17)20-10/h3-4,8-10,17-19H,2H2,1H3,(H,12,14)/t4-,8-,9+,10-/m0/s1

> <INCHI_KEY>
InChIKey=BWIUYFGURMAWQD-CPXCQARFSA-N

> <SMILES>
CNc1ncnc2c(nnc12)[C@@H]1O[C@@H](CO)[C@H](O)[C@H]1O

> <JCHEM_ACCEPTOR_COUNT>
9

> <JCHEM_DONOR_COUNT>
4

> <JCHEM_ACIDIC_PKA>
12.58

> <JCHEM_BASIC_PKA>
0.85

> <JCHEM_PHYSIOLOGICAL_CHARGE>
0

> <ALOGPS_LOGP>
-0.97

> <JCHEM_LOGP>
-2.5

> <ALOGPS_LOGS>
-1.7

> <JCHEM_POLARIZABILITY>
27.03

> <JCHEM_POLAR_SURFACE_AREA>
133.51

> <JCHEM_REFRACTIVITY>
69.01

> <JCHEM_ROTATABLE_BOND_COUNT>
3

> <ALOGPS_SOLUBILITY>
6.09e+00 g/l __ 

$$$$
