
  Mrv0541 02231216172D          

 39 41  0  0  1  0            999 V2000
   -4.0540   -6.4292    0.0000 O   0  0  0  0  0  0  0  0  0  0  0  0
   -3.3396   -6.0167    0.0000 C   0  0  2  0  0  0  0  0  0  0  0  0
   -3.3396   -5.1917    0.0000 C   0  0  1  0  0  0  0  0  0  0  0  0
   -4.0540   -4.7792    0.0000 O   0  0  0  0  0  0  0  0  0  0  0  0
   -2.6251   -4.7792    0.0000 C   0  0  2  0  0  0  0  0  0  0  0  0
   -2.6251   -3.9542    0.0000 C   0  0  0  0  0  0  0  0  0  0  0  0
   -3.3396   -3.5417    0.0000 S   0  0  0  0  0  0  0  0  0  0  0  0
   -4.0540   -3.1292    0.0000 O   0  0  0  0  0  0  0  0  0  0  0  0
   -3.7521   -4.2562    0.0000 O   0  0  0  0  0  0  0  0  0  0  0  0
   -2.9271   -2.8272    0.0000 O   0  0  0  0  0  0  0  0  0  0  0  0
   -1.9106   -5.1917    0.0000 O   0  0  0  0  0  0  0  0  0  0  0  0
   -1.9106   -6.0167    0.0000 C   0  0  2  0  0  0  0  0  0  0  0  0
   -1.1962   -6.4292    0.0000 O   0  0  0  0  0  0  0  0  0  0  0  0
   -0.4817   -6.0167    0.0000 P   0  0  2  0  0  0  0  0  0  0  0  0
   -0.0692   -6.7312    0.0000 O   0  0  0  0  0  0  0  0  0  0  0  0
   -0.8942   -5.3022    0.0000 O   0  0  0  0  0  0  0  0  0  0  0  0
    0.2328   -5.6042    0.0000 O   0  0  0  0  0  0  0  0  0  0  0  0
    0.9473   -6.0167    0.0000 P   0  0  1  0  0  0  0  0  0  0  0  0
    0.5348   -6.7312    0.0000 O   0  0  0  0  0  0  0  0  0  0  0  0
    1.3598   -5.3022    0.0000 O   0  0  0  0  0  0  0  0  0  0  0  0
    1.6617   -6.4292    0.0000 O   0  0  0  0  0  0  0  0  0  0  0  0
    2.3762   -6.0167    0.0000 C   0  0  0  0  0  0  0  0  0  0  0  0
    3.0907   -6.4292    0.0000 C   0  0  2  0  0  0  0  0  0  0  0  0
    3.8443   -6.0937    0.0000 O   0  0  0  0  0  0  0  0  0  0  0  0
    4.3964   -6.7067    0.0000 C   0  0  2  0  0  0  0  0  0  0  0  0
    3.9839   -7.4212    0.0000 C   0  0  2  0  0  0  0  0  0  0  0  0
    4.3194   -8.1749    0.0000 O   0  0  0  0  0  0  0  0  0  0  0  0
    3.1769   -7.2497    0.0000 C   0  0  1  0  0  0  0  0  0  0  0  0
    2.5638   -7.8017    0.0000 O   0  0  0  0  0  0  0  0  0  0  0  0
    5.2169   -6.6205    0.0000 N   0  0  0  0  0  0  0  0  0  0  0  0
    5.5524   -5.8668    0.0000 C   0  0  0  0  0  0  0  0  0  0  0  0
    6.3729   -5.7806    0.0000 C   0  0  0  0  0  0  0  0  0  0  0  0
    6.8578   -6.4480    0.0000 C   0  0  0  0  0  0  0  0  0  0  0  0
    7.6783   -6.3618    0.0000 O   0  0  0  0  0  0  0  0  0  0  0  0
    6.5223   -7.2017    0.0000 N   0  0  0  0  0  0  0  0  0  0  0  0
    5.7018   -7.2880    0.0000 C   0  0  0  0  0  0  0  0  0  0  0  0
    5.3662   -8.0416    0.0000 O   0  0  0  0  0  0  0  0  0  0  0  0
   -2.6251   -6.4292    0.0000 C   0  0  1  0  0  0  0  0  0  0  0  0
   -2.6251   -7.2542    0.0000 O   0  0  0  0  0  0  0  0  0  0  0  0
  2  1  1  6  0  0  0
  2  3  1  0  0  0  0
  3  4  1  1  0  0  0
  3  5  1  0  0  0  0
  5  6  1  6  0  0  0
  6  7  1  0  0  0  0
  7  8  1  0  0  0  0
  7  9  2  0  0  0  0
  7 10  2  0  0  0  0
  5 11  1  0  0  0  0
 11 12  1  0  0  0  0
 12 13  1  6  0  0  0
 14 13  1  6  0  0  0
 14 15  1  1  0  0  0
 14 16  2  0  0  0  0
 14 17  1  0  0  0  0
 18 17  1  1  0  0  0
 18 19  1  6  0  0  0
 18 20  2  0  0  0  0
 18 21  1  0  0  0  0
 21 22  1  0  0  0  0
 23 22  1  6  0  0  0
 23 24  1  0  0  0  0
 24 25  1  0  0  0  0
 25 26  1  0  0  0  0
 26 27  1  6  0  0  0
 26 28  1  0  0  0  0
 23 28  1  0  0  0  0
 28 29  1  1  0  0  0
 25 30  1  1  0  0  0
 30 31  1  0  0  0  0
 31 32  2  0  0  0  0
 32 33  1  0  0  0  0
 33 34  2  0  0  0  0
 33 35  1  0  0  0  0
 35 36  1  0  0  0  0
 30 36  1  0  0  0  0
 36 37  2  0  0  0  0
 12 38  1  0  0  0  0
  2 38  1  0  0  0  0
 38 39  1  1  0  0  0
M  END
> <DRUGBANK_ID>
DB02554

> <DRUG_GROUPS>
experimental

> <GENERIC_NAME>
Sulfoquinovose-Uridine-C1,5'-Diphosphate

> <CHEMICAL_FORMULA>
C15H24N2O19P2S

> <MOLECULAR_WEIGHT>
630.366

> <EXACT_MASS>
630.01692031

> <IUPAC_NAME>
[(2R,3R,4R,5S,6R)-6-({[({[(2S,3R,4R,5R)-5-(2,4-dioxo-1,2,3,4-tetrahydropyrimidin-1-yl)-3,4-dihydroxyoxolan-2-yl]methoxy}(hydroxy)phosphoryl)oxy](hydroxy)phosphoryl}oxy)-3,4,5-trihydroxyoxan-2-yl]methanesulfonic acid

> <IUPAC_TRADITIONAL_NAME>
[(2R,3R,4R,5S,6R)-6-[({[(2S,3R,4R,5R)-5-(2,4-dioxo-3H-pyrimidin-1-yl)-3,4-dihydroxyoxolan-2-yl]methoxy(hydroxy)phosphoryl}oxy(hydroxy)phosphoryl)oxy]-3,4,5-trihydroxyoxan-2-yl]methanesulfonic acid

> <INCHI_IDENTIFIER>
InChI=1S/C15H24N2O19P2S/c18-7-1-2-17(15(24)16-7)13-11(22)8(19)5(33-13)3-32-37(25,26)36-38(27,28)35-14-12(23)10(21)9(20)6(34-14)4-39(29,30)31/h1-2,5-6,8-14,19-23H,3-4H2,(H,25,26)(H,27,28)(H,16,18,24)(H,29,30,31)/t5-,6-,8-,9-,10+,11+,12-,13+,14+/m0/s1

> <INCHI_KEY>
InChIKey=FQANCGQCBCUSMI-LJMZODOWSA-N

> <SMILES>
O[C@H]1[C@H](CO[P@](O)(=O)O[P@@](O)(=O)O[C@H]2O[C@@H](CS(O)(=O)=O)[C@H](O)[C@@H](O)[C@@H]2O)O[C@H]([C@@H]1O)N1C=CC(=O)NC1=O

> <JCHEM_ACCEPTOR_COUNT>
16

> <JCHEM_DONOR_COUNT>
9

> <JCHEM_ACIDIC_PKA>
-1.3

> <JCHEM_BASIC_PKA>
-3.7

> <JCHEM_PHYSIOLOGICAL_CHARGE>
-3

> <ALOGPS_LOGP>
-1.2

> <JCHEM_LOGP>
-5.3

> <ALOGPS_LOGS>
-1.4

> <JCHEM_POLARIZABILITY>
51.32

> <JCHEM_POLAR_SURFACE_AREA>
325.68

> <JCHEM_REFRACTIVITY>
114.85

> <JCHEM_ROTATABLE_BOND_COUNT>
10

> <ALOGPS_SOLUBILITY>
2.45e+01 g/l __ 

$$$$
