
  Mrv0541 02231216072D          

 50 54  0  0  1  0            999 V2000
  -12.3579    3.3008    0.0000 N   0  0  0  0  0  0  0  0  0  0  0  0
  -11.5374    3.2145    0.0000 C   0  0  0  0  0  0  0  0  0  0  0  0
  -11.0525    3.8820    0.0000 O   0  0  0  0  0  0  0  0  0  0  0  0
  -11.2018    2.4608    0.0000 C   0  0  0  0  0  0  0  0  0  0  0  0
  -10.3814    2.3746    0.0000 C   0  0  0  0  0  0  0  0  0  0  0  0
  -10.0458    1.6209    0.0000 N   0  0  0  0  0  0  0  0  0  0  0  0
  -10.5307    0.9535    0.0000 C   0  0  1  0  0  0  0  0  0  0  0  0
  -10.1952    0.1998    0.0000 O   0  0  0  0  0  0  0  0  0  0  0  0
  -11.3512    1.0397    0.0000 C   0  0  2  0  0  0  0  0  0  0  0  0
  -11.8361    0.3723    0.0000 O   0  0  0  0  0  0  0  0  0  0  0  0
  -11.6868    1.7934    0.0000 C   0  0  0  0  0  0  0  0  0  0  0  0
   -9.2253    1.5347    0.0000 C   0  0  2  0  0  0  0  0  0  0  0  0
   -8.6733    2.1478    0.0000 O   0  0  0  0  0  0  0  0  0  0  0  0
   -7.9196    1.8122    0.0000 C   0  0  1  0  0  0  0  0  0  0  0  0
   -7.2052    2.2247    0.0000 C   0  0  0  0  0  0  0  0  0  0  0  0
   -6.4907    1.8122    0.0000 O   0  0  0  0  0  0  0  0  0  0  0  0
   -5.7762    2.2247    0.0000 P   0  0  2  0  0  0  0  0  0  0  0  0
   -5.3637    1.5103    0.0000 O   0  0  0  0  0  0  0  0  0  0  0  0
   -6.1887    2.9392    0.0000 O   0  0  0  0  0  0  0  0  0  0  0  0
   -5.0617    2.6372    0.0000 O   0  0  0  0  0  0  0  0  0  0  0  0
   -4.3473    2.2247    0.0000 P   0  0  1  0  0  0  0  0  0  0  0  0
   -4.7598    1.5103    0.0000 O   0  0  0  0  0  0  0  0  0  0  0  0
   -3.9348    2.9392    0.0000 O   0  0  0  0  0  0  0  0  0  0  0  0
   -3.6328    1.8122    0.0000 O   0  0  0  0  0  0  0  0  0  0  0  0
   -2.9183    2.2247    0.0000 C   0  0  0  0  0  0  0  0  0  0  0  0
   -2.2039    1.8122    0.0000 C   0  0  2  0  0  0  0  0  0  0  0  0
   -1.4502    2.1478    0.0000 O   0  0  0  0  0  0  0  0  0  0  0  0
   -0.8981    1.5347    0.0000 C   0  0  2  0  0  0  0  0  0  0  0  0
   -1.3106    0.8202    0.0000 C   0  0  2  0  0  0  0  0  0  0  0  0
   -0.9751    0.0665    0.0000 O   0  0  0  0  0  0  0  0  0  0  0  0
   -1.4600   -0.6009    0.0000 P   0  0  0  0  0  0  0  0  0  0  0  0
   -2.1275   -0.1160    0.0000 O   0  0  0  0  0  0  0  0  0  0  0  0
   -0.7926   -1.0858    0.0000 O   0  0  0  0  0  0  0  0  0  0  0  0
   -1.9449   -1.2683    0.0000 O   0  0  0  0  0  0  0  0  0  0  0  0
   -2.1176    0.9917    0.0000 C   0  0  1  0  0  0  0  0  0  0  0  0
   -2.7307    0.4397    0.0000 O   0  0  0  0  0  0  0  0  0  0  0  0
   -0.0777    1.6209    0.0000 N   0  0  0  0  0  0  0  0  0  0  0  0
    0.4744    1.0078    0.0000 C   0  0  0  0  0  0  0  0  0  0  0  0
    1.2280    1.3434    0.0000 N   0  0  0  0  0  0  0  0  0  0  0  0
    1.1418    2.1639    0.0000 C   0  0  0  0  0  0  0  0  0  0  0  0
    0.3348    2.3354    0.0000 C   0  0  0  0  0  0  0  0  0  0  0  0
    0.0799    3.1200    0.0000 N   0  0  0  0  0  0  0  0  0  0  0  0
    0.6319    3.7331    0.0000 C   0  0  0  0  0  0  0  0  0  0  0  0
    1.4389    3.5616    0.0000 N   0  0  0  0  0  0  0  0  0  0  0  0
    1.6938    2.7770    0.0000 C   0  0  0  0  0  0  0  0  0  0  0  0
    2.5008    2.6054    0.0000 N   0  0  0  0  0  0  0  0  0  0  0  0
   -8.0059    0.9917    0.0000 C   0  0  2  0  0  0  0  0  0  0  0  0
   -7.3928    0.4397    0.0000 O   0  0  0  0  0  0  0  0  0  0  0  0
   -8.8128    0.8202    0.0000 C   0  0  1  0  0  0  0  0  0  0  0  0
   -9.1484    0.0665    0.0000 O   0  0  0  0  0  0  0  0  0  0  0  0
  1  2  1  0  0  0  0
  2  3  2  0  0  0  0
  2  4  1  0  0  0  0
  4  5  2  0  0  0  0
  5  6  1  0  0  0  0
  6  7  1  0  0  0  0
  7  8  1  1  0  0  0
  7  9  1  0  0  0  0
  9 10  1  6  0  0  0
  9 11  1  0  0  0  0
  4 11  1  0  0  0  0
 12  6  1  6  0  0  0
 12 13  1  0  0  0  0
 13 14  1  0  0  0  0
 14 15  1  1  0  0  0
 15 16  1  0  0  0  0
 17 16  1  6  0  0  0
 17 18  1  1  0  0  0
 17 19  2  0  0  0  0
 17 20  1  0  0  0  0
 21 20  1  1  0  0  0
 21 22  1  6  0  0  0
 21 23  2  0  0  0  0
 21 24  1  0  0  0  0
 24 25  1  0  0  0  0
 26 25  1  6  0  0  0
 26 27  1  0  0  0  0
 27 28  1  0  0  0  0
 28 29  1  0  0  0  0
 29 30  1  6  0  0  0
 30 31  1  0  0  0  0
 31 32  1  0  0  0  0
 31 33  1  0  0  0  0
 31 34  2  0  0  0  0
 29 35  1  0  0  0  0
 26 35  1  0  0  0  0
 35 36  1  1  0  0  0
 28 37  1  1  0  0  0
 37 38  1  0  0  0  0
 38 39  2  0  0  0  0
 39 40  1  0  0  0  0
 40 41  2  0  0  0  0
 37 41  1  0  0  0  0
 41 42  1  0  0  0  0
 42 43  2  0  0  0  0
 43 44  1  0  0  0  0
 44 45  2  0  0  0  0
 40 45  1  0  0  0  0
 45 46  1  0  0  0  0
 14 47  1  0  0  0  0
 47 48  1  6  0  0  0
 47 49  1  0  0  0  0
 12 49  1  0  0  0  0
 49 50  1  1  0  0  0
M  END
> <DRUGBANK_ID>
DB02319

> <DRUG_GROUPS>
experimental

> <GENERIC_NAME>
5,6-Dihydroxy-Nadp

> <CHEMICAL_FORMULA>
C21H32N7O19P3

> <MOLECULAR_WEIGHT>
779.4356

> <EXACT_MASS>
779.096581413

> <IUPAC_NAME>
{[(2R,3R,4S,5S)-2-(6-amino-9H-purin-9-yl)-5-[({[({[(2S,3R,4R,5R)-5-[(2S,3R)-5-carbamoyl-2,3-dihydroxy-1,2,3,4-tetrahydropyridin-1-yl]-3,4-dihydroxyoxolan-2-yl]methoxy}(hydroxy)phosphoryl)oxy](hydroxy)phosphoryl}oxy)methyl]-4-hydroxyoxolan-3-yl]oxy}phosphonic acid

> <IUPAC_TRADITIONAL_NAME>
[(2R,3R,4S,5S)-2-(6-aminopurin-9-yl)-5-{[({[(2S,3R,4R,5R)-5-[(2S,3R)-5-carbamoyl-2,3-dihydroxy-3,4-dihydro-2H-pyridin-1-yl]-3,4-dihydroxyoxolan-2-yl]methoxy(hydroxy)phosphoryl}oxy(hydroxy)phosphoryl)oxy]methyl}-4-hydroxyoxolan-3-yl]oxyphosphonic acid

> <INCHI_IDENTIFIER>
InChI=1S/C21H32N7O19P3/c22-16-11-18(25-5-24-16)28(6-26-11)21-15(46-48(35,36)37)13(31)10(45-21)4-43-50(40,41)47-49(38,39)42-3-9-12(30)14(32)20(44-9)27-2-7(17(23)33)1-8(29)19(27)34/h2,5-6,8-10,12-15,19-21,29-32,34H,1,3-4H2,(H2,23,33)(H,38,39)(H,40,41)(H2,22,24,25)(H2,35,36,37)/t8-,9+,10+,12+,13+,14-,15-,19+,20-,21-/m1/s1

> <INCHI_KEY>
InChIKey=LRAVAOPKUBJONV-MFVBCOROSA-N

> <SMILES>
NC(=O)C1=CN([C@@H]2O[C@@H](CO[P@](O)(=O)O[P@@](O)(=O)OC[C@@H]3O[C@H]([C@H](OP(O)(O)=O)[C@H]3O)N3C=NC4=C3N=CN=C4N)[C@H](O)[C@H]2O)[C@@H](O)[C@H](O)C1

> <JCHEM_ACCEPTOR_COUNT>
20

> <JCHEM_DONOR_COUNT>
11

> <JCHEM_ACIDIC_PKA>
0.66

> <JCHEM_BASIC_PKA>
4.92

> <JCHEM_PHYSIOLOGICAL_CHARGE>
-4

> <ALOGPS_LOGP>
-1.4

> <JCHEM_LOGP>
-8.9

> <ALOGPS_LOGS>
-2.2

> <JCHEM_POLARIZABILITY>
64.98

> <JCHEM_POLAR_SURFACE_AREA>
404.61

> <JCHEM_REFRACTIVITY>
156.17

> <JCHEM_ROTATABLE_BOND_COUNT>
13

> <ALOGPS_SOLUBILITY>
5.26e+00 g/l __ 

$$$$
