
  Mrv0541 02231216202D          

 33 37  0  0  1  0            999 V2000
   -3.5724    2.0625    0.0000 C   0  0  0  0  0  0  0  0  0  0  0  0
   -2.8579    2.4750    0.0000 C   0  0  1  0  0  0  0  0  0  0  0  0
   -2.1434    2.0625    0.0000 C   0  0  0  0  0  0  0  0  0  0  0  0
   -2.1434    1.2375    0.0000 O   0  0  0  0  0  0  0  0  0  0  0  0
   -1.4289    0.8250    0.0000 C   0  0  0  0  0  0  0  0  0  0  0  0
   -0.7145    1.2375    0.0000 C   0  0  0  0  0  0  0  0  0  0  0  0
    0.0000    0.8250    0.0000 C   0  0  0  0  0  0  0  0  0  0  0  0
    0.0000    0.0000    0.0000 C   0  0  0  0  0  0  0  0  0  0  0  0
   -0.7145   -0.4125    0.0000 C   0  0  0  0  0  0  0  0  0  0  0  0
   -1.4289    0.0000    0.0000 C   0  0  0  0  0  0  0  0  0  0  0  0
    0.7145   -0.4125    0.0000 C   0  0  2  0  0  0  0  0  0  0  0  0
    1.4289    0.0000    0.0000 O   0  0  0  0  0  0  0  0  0  0  0  0
    2.1434   -0.4125    0.0000 C   0  0  0  0  0  0  0  0  0  0  0  0
    2.8579    0.0000    0.0000 C   0  0  0  0  0  0  0  0  0  0  0  0
    3.5724   -0.4125    0.0000 C   0  0  0  0  0  0  0  0  0  0  0  0
    3.5724   -1.2375    0.0000 C   0  0  0  0  0  0  0  0  0  0  0  0
    4.2868   -1.6500    0.0000 O   0  0  0  0  0  0  0  0  0  0  0  0
    2.8579   -1.6500    0.0000 C   0  0  0  0  0  0  0  0  0  0  0  0
    2.1434   -1.2375    0.0000 C   0  0  0  0  0  0  0  0  0  0  0  0
    1.4289   -1.6500    0.0000 S   0  0  0  0  0  0  0  0  0  0  0  0
    0.7145   -1.2375    0.0000 C   0  0  1  0  0  0  0  0  0  0  0  0
    0.0000   -1.6500    0.0000 C   0  0  0  0  0  0  0  0  0  0  0  0
    0.0000   -2.4750    0.0000 C   0  0  0  0  0  0  0  0  0  0  0  0
   -0.7145   -2.8875    0.0000 C   0  0  0  0  0  0  0  0  0  0  0  0
   -1.4289   -2.4750    0.0000 C   0  0  0  0  0  0  0  0  0  0  0  0
   -2.1434   -2.8875    0.0000 O   0  0  0  0  0  0  0  0  0  0  0  0
   -1.4289   -1.6500    0.0000 C   0  0  0  0  0  0  0  0  0  0  0  0
   -0.7145   -1.2375    0.0000 C   0  0  0  0  0  0  0  0  0  0  0  0
   -2.8579    3.3000    0.0000 N   0  0  0  0  0  0  0  0  0  0  0  0
   -3.5253    3.7849    0.0000 C   0  0  0  0  0  0  0  0  0  0  0  0
   -3.2704    4.5695    0.0000 C   0  0  0  0  0  0  0  0  0  0  0  0
   -2.4454    4.5695    0.0000 C   0  0  0  0  0  0  0  0  0  0  0  0
   -2.1904    3.7849    0.0000 C   0  0  0  0  0  0  0  0  0  0  0  0
  2  1  1  6  0  0  0
  2  3  1  0  0  0  0
  3  4  1  0  0  0  0
  4  5  1  0  0  0  0
  5  6  2  0  0  0  0
  6  7  1  0  0  0  0
  7  8  2  0  0  0  0
  8  9  1  0  0  0  0
  9 10  2  0  0  0  0
  5 10  1  0  0  0  0
 11  8  1  6  0  0  0
 11 12  1  0  0  0  0
 12 13  1  0  0  0  0
 13 14  2  0  0  0  0
 14 15  1  0  0  0  0
 15 16  2  0  0  0  0
 16 17  1  0  0  0  0
 16 18  1  0  0  0  0
 18 19  2  0  0  0  0
 13 19  1  0  0  0  0
 19 20  1  0  0  0  0
 20 21  1  0  0  0  0
 11 21  1  0  0  0  0
 21 22  1  1  0  0  0
 22 23  2  0  0  0  0
 23 24  1  0  0  0  0
 24 25  2  0  0  0  0
 25 26  1  0  0  0  0
 25 27  1  0  0  0  0
 27 28  2  0  0  0  0
 22 28  1  0  0  0  0
  2 29  1  0  0  0  0
 29 30  1  0  0  0  0
 30 31  1  0  0  0  0
 31 32  1  0  0  0  0
 32 33  1  0  0  0  0
 29 33  1  0  0  0  0
M  END
> <DRUGBANK_ID>
DB02615

> <DRUG_GROUPS>
experimental

> <GENERIC_NAME>
Compound 19

> <CHEMICAL_FORMULA>
C27H29NO4S

> <MOLECULAR_WEIGHT>
463.588

> <EXACT_MASS>
463.181729111

> <IUPAC_NAME>
(2S,3S)-3-(4-hydroxyphenyl)-2-{4-[(2S)-2-(pyrrolidin-1-yl)propoxy]phenyl}-2,3-dihydro-1,4-benzoxathiin-6-ol

> <IUPAC_TRADITIONAL_NAME>
compound 19

> <INCHI_IDENTIFIER>
InChI=1S/C27H29NO4S/c1-18(28-14-2-3-15-28)17-31-23-11-6-19(7-12-23)26-27(20-4-8-21(29)9-5-20)33-25-16-22(30)10-13-24(25)32-26/h4-13,16,18,26-27,29-30H,2-3,14-15,17H2,1H3/t18-,26-,27-/m0/s1

> <INCHI_KEY>
InChIKey=UZOOIPXOYYJULJ-OALGXETFSA-N

> <SMILES>
C[C@@H](COC1=CC=C(C=C1)[C@@H]1OC2=CC=C(O)C=C2S[C@H]1C1=CC=C(O)C=C1)N1CCCC1

> <JCHEM_ACCEPTOR_COUNT>
5

> <JCHEM_DONOR_COUNT>
2

> <JCHEM_ACIDIC_PKA>
9.55

> <JCHEM_BASIC_PKA>
9

> <JCHEM_PHYSIOLOGICAL_CHARGE>
1

> <ALOGPS_LOGP>
5.69

> <JCHEM_LOGP>
5.03

> <ALOGPS_LOGS>
-5.4

> <JCHEM_POLARIZABILITY>
51.15

> <JCHEM_POLAR_SURFACE_AREA>
62.16

> <JCHEM_REFRACTIVITY>
132.46

> <JCHEM_ROTATABLE_BOND_COUNT>
6

> <ALOGPS_SOLUBILITY>
1.78e-03 g/l __ 

$$$$
