
  Mrv0541 02231216022D          

 33 37  0  0  1  0            999 V2000
   -4.3800   -0.2302    0.0000 O   0  0  0  0  0  0  0  0  0  0  0  0
   -3.5954   -0.4852    0.0000 C   0  0  0  0  0  0  0  0  0  0  0  0
   -2.9823    0.0669    0.0000 C   0  0  0  0  0  0  0  0  0  0  0  0
   -2.1977   -0.1881    0.0000 C   0  0  0  0  0  0  0  0  0  0  0  0
   -2.0261   -0.9950    0.0000 C   0  0  0  0  0  0  0  0  0  0  0  0
   -1.2415   -1.2500    0.0000 C   0  0  0  0  0  0  0  0  0  0  0  0
   -0.6284   -0.6979    0.0000 C   0  0  2  0  0  0  0  0  0  0  0  0
   -1.2415   -0.1459    0.0000 O   0  0  0  0  0  0  0  0  0  0  0  0
   -0.1435   -1.3654    0.0000 N   0  0  0  0  0  0  0  0  0  0  0  0
    0.6411   -1.1104    0.0000 C   0  0  0  0  0  0  0  0  0  0  0  0
    0.6411   -0.2854    0.0000 N   0  0  0  0  0  0  0  0  0  0  0  0
    1.3556    0.1271    0.0000 C   0  0  0  0  0  0  0  0  0  0  0  0
    2.0701   -0.2854    0.0000 C   0  0  0  0  0  0  0  0  0  0  0  0
    2.0701   -1.1104    0.0000 N   0  0  0  0  0  0  0  0  0  0  0  0
    1.3556   -1.5229    0.0000 C   0  0  0  0  0  0  0  0  0  0  0  0
    1.3556   -2.3479    0.0000 C   0  0  0  0  0  0  0  0  0  0  0  0
    0.6411   -2.7604    0.0000 C   0  0  0  0  0  0  0  0  0  0  0  0
    0.6411   -3.5854    0.0000 C   0  0  0  0  0  0  0  0  0  0  0  0
   -0.0734   -3.9979    0.0000 C   0  0  0  0  0  0  0  0  0  0  0  0
   -0.7878   -3.5854    0.0000 C   0  0  0  0  0  0  0  0  0  0  0  0
   -0.7878   -2.7604    0.0000 C   0  0  0  0  0  0  0  0  0  0  0  0
   -0.0734   -2.3479    0.0000 C   0  0  0  0  0  0  0  0  0  0  0  0
    2.7845    0.1271    0.0000 C   0  0  0  0  0  0  0  0  0  0  0  0
    2.7845    0.9521    0.0000 C   0  0  0  0  0  0  0  0  0  0  0  0
    3.4990    1.3646    0.0000 C   0  0  0  0  0  0  0  0  0  0  0  0
    4.2135    0.9521    0.0000 C   0  0  0  0  0  0  0  0  0  0  0  0
    4.9279    1.3646    0.0000 O   0  0  0  0  0  0  0  0  0  0  0  0
    4.2135    0.1271    0.0000 C   0  0  0  0  0  0  0  0  0  0  0  0
    3.4990   -0.2854    0.0000 C   0  0  0  0  0  0  0  0  0  0  0  0
   -0.1435   -0.0305    0.0000 C   0  0  0  0  0  0  0  0  0  0  0  0
   -0.3984    0.7541    0.0000 O   0  0  0  0  0  0  0  0  0  0  0  0
   -2.6392   -1.5471    0.0000 C   0  0  0  0  0  0  0  0  0  0  0  0
   -3.4239   -1.2921    0.0000 C   0  0  0  0  0  0  0  0  0  0  0  0
  1  2  1  0  0  0  0
  2  3  2  0  0  0  0
  3  4  1  0  0  0  0
  4  5  2  0  0  0  0
  5  6  1  0  0  0  0
  7  6  1  1  0  0  0
  7  8  1  6  0  0  0
  7  9  1  0  0  0  0
  9 10  2  0  0  0  0
 10 11  1  0  0  0  0
 11 12  1  0  0  0  0
 12 13  2  0  0  0  0
 13 14  1  0  0  0  0
 14 15  2  0  0  0  0
 10 15  1  0  0  0  0
 15 16  1  0  0  0  0
 16 17  1  0  0  0  0
 17 18  2  0  0  0  0
 18 19  1  0  0  0  0
 19 20  2  0  0  0  0
 20 21  1  0  0  0  0
 21 22  2  0  0  0  0
 17 22  1  0  0  0  0
 13 23  1  0  0  0  0
 23 24  2  0  0  0  0
 24 25  1  0  0  0  0
 25 26  2  0  0  0  0
 26 27  1  0  0  0  0
 26 28  1  0  0  0  0
 28 29  2  0  0  0  0
 23 29  1  0  0  0  0
 11 30  1  0  0  0  0
  7 30  1  0  0  0  0
 30 31  2  0  0  0  0
  5 32  1  0  0  0  0
 32 33  2  0  0  0  0
  2 33  1  0  0  0  0
M  END
> <DRUGBANK_ID>
DB02194

> <DRUG_GROUPS>
experimental

> <GENERIC_NAME>
8-Benzyl-2-Hydroxy-2-(4-Hydroxy-Benzyl)-6-(4-Hydroxy-Phenyl)-2h-Imidazo[1,2-a]Pyrazin-3-One

> <CHEMICAL_FORMULA>
C26H21N3O4

> <MOLECULAR_WEIGHT>
439.4626

> <EXACT_MASS>
439.153206175

> <IUPAC_NAME>
(2R)-8-benzyl-2-hydroxy-6-(4-hydroxyphenyl)-2-[(4-hydroxyphenyl)methyl]-2H,3H-imidazo[1,2-a]pyrazin-3-one

> <IUPAC_TRADITIONAL_NAME>
(2R)-8-benzyl-2-hydroxy-6-(4-hydroxyphenyl)-2-[(4-hydroxyphenyl)methyl]imidazo[1,2-a]pyrazin-3-one

> <INCHI_IDENTIFIER>
InChI=1S/C26H21N3O4/c30-20-10-6-18(7-11-20)15-26(33)25(32)29-16-23(19-8-12-21(31)13-9-19)27-22(24(29)28-26)14-17-4-2-1-3-5-17/h1-13,16,30-31,33H,14-15H2/t26-/m1/s1

> <INCHI_KEY>
InChIKey=ULLMMKZQNNBLRN-AREMUKBSSA-N

> <SMILES>
OC1=CC=C(C[C@]2(O)N=C3N(C=C(N=C3CC3=CC=CC=C3)C3=CC=C(O)C=C3)C2=O)C=C1

> <JCHEM_ACCEPTOR_COUNT>
6

> <JCHEM_DONOR_COUNT>
3

> <JCHEM_ACIDIC_PKA>
8.93

> <JCHEM_BASIC_PKA>
1.1

> <JCHEM_PHYSIOLOGICAL_CHARGE>
0

> <ALOGPS_LOGP>
3.58

> <JCHEM_LOGP>
4.17

> <ALOGPS_LOGS>
-4.5

> <JCHEM_POLARIZABILITY>
46.23

> <JCHEM_POLAR_SURFACE_AREA>
105.72

> <JCHEM_REFRACTIVITY>
124.16

> <JCHEM_ROTATABLE_BOND_COUNT>
5

> <ALOGPS_SOLUBILITY>
1.47e-02 g/l __ 

$$$$
