
  Mrv0541 02231216232D          

  6  5  0  0  0  0            999 V2000
    0.8250    1.4289    0.0000 N   0  0  0  0  0  0  0  0  0  0  0  0
    1.2375    0.7145    0.0000 C   0  0  0  0  0  0  0  0  0  0  0  0
    2.0625    0.7145    0.0000 C   0  0  0  0  0  0  0  0  0  0  0  0
    0.8250    0.0000    0.0000 C   0  0  0  0  0  0  0  0  0  0  0  0
    1.2375   -0.7145    0.0000 O   0  0  0  0  0  0  0  0  0  0  0  0
    0.0000    0.0000    0.0000 O   0  0  0  0  0  0  0  0  0  0  0  0
  1  2  1  0  0  0  0
  2  3  2  0  0  0  0
  2  4  1  0  0  0  0
  4  5  1  0  0  0  0
  4  6  2  0  0  0  0
M  END
> <DRUGBANK_ID>
DB02688

> <DRUG_GROUPS>
experimental

> <GENERIC_NAME>
2,3-Didehydroalanine

> <CHEMICAL_FORMULA>
C3H5NO2

> <MOLECULAR_WEIGHT>
87.0773

> <EXACT_MASS>
87.032028409

> <IUPAC_NAME>
2-aminoprop-2-enoic acid

> <IUPAC_TRADITIONAL_NAME>
2,3-didehydroalanine

> <INCHI_IDENTIFIER>
InChI=1S/C3H5NO2/c1-2(4)3(5)6/h1,4H2,(H,5,6)

> <INCHI_KEY>
InChIKey=UQBOJOOOTLPNST-UHFFFAOYSA-N

> <SMILES>
NC(=C)C(O)=O

> <JCHEM_ACCEPTOR_COUNT>
3

> <JCHEM_DONOR_COUNT>
2

> <JCHEM_ACIDIC_PKA>
2.58

> <JCHEM_BASIC_PKA>
8.64

> <JCHEM_PHYSIOLOGICAL_CHARGE>
0

> <ALOGPS_LOGP>
-0.13

> <JCHEM_LOGP>
-2.9

> <ALOGPS_LOGS>
0.43

> <JCHEM_POLARIZABILITY>
7.72

> <JCHEM_POLAR_SURFACE_AREA>
63.32

> <JCHEM_REFRACTIVITY>
20.92

> <JCHEM_ROTATABLE_BOND_COUNT>
1

> <ALOGPS_SOLUBILITY>
2.33e+02 g/l __ 

$$$$
