
  Mrv0541 02231216282D          

 13 12  0  0  0  0            999 V2000
    1.4289   -4.7289    0.0000 N   0  0  0  0  0  0  0  0  0  0  0  0
    1.4289   -3.9039    0.0000 C   0  0  0  0  0  0  0  0  0  0  0  0
    2.1434   -3.4914    0.0000 O   0  0  0  0  0  0  0  0  0  0  0  0
    0.7145   -3.4914    0.0000 C   0  0  0  0  0  0  0  0  0  0  0  0
    0.7145   -2.6664    0.0000 N   0  0  0  0  0  0  0  0  0  0  0  0
    0.0000   -2.2539    0.0000 C   0  0  0  0  0  0  0  0  0  0  0  0
    0.0000   -1.4289    0.0000 C   0  0  0  0  0  0  0  0  0  0  0  0
   -0.7145   -1.0164    0.0000 O   0  0  0  0  0  0  0  0  0  0  0  0
    0.7145   -1.0164    0.0000 O   0  0  0  0  0  0  0  0  0  0  0  0
    1.4289   -2.2539    0.0000 C   0  0  0  0  0  0  0  0  0  0  0  0
    1.4289   -1.4289    0.0000 C   0  0  0  0  0  0  0  0  0  0  0  0
    1.0934   -0.6753    0.0000 O   0  0  0  0  0  0  0  0  0  0  0  0
    2.1434   -1.0164    0.0000 O   0  0  0  0  0  0  0  0  0  0  0  0
  1  2  1  0  0  0  0
  2  3  2  0  0  0  0
  2  4  1  0  0  0  0
  4  5  1  0  0  0  0
  5  6  1  0  0  0  0
  6  7  1  0  0  0  0
  7  8  1  0  0  0  0
  7  9  2  0  0  0  0
  5 10  1  0  0  0  0
 10 11  1  0  0  0  0
 11 12  1  0  0  0  0
 11 13  2  0  0  0  0
M  END
> <DRUGBANK_ID>
DB02810

> <DRUG_GROUPS>
experimental

> <GENERIC_NAME>
N-(2-Acetamido)Iminodiacetic Acid

> <CHEMICAL_FORMULA>
C6H10N2O5

> <MOLECULAR_WEIGHT>
190.154

> <EXACT_MASS>
190.05897144

> <IUPAC_NAME>
2-[(carbamoylmethyl)(carboxymethyl)amino]acetic acid

> <IUPAC_TRADITIONAL_NAME>
[(carbamoylmethyl)(carboxymethyl)amino]acetic acid

> <INCHI_IDENTIFIER>
InChI=1S/C6H10N2O5/c7-4(9)1-8(2-5(10)11)3-6(12)13/h1-3H2,(H2,7,9)(H,10,11)(H,12,13)

> <INCHI_KEY>
InChIKey=QZTKDVCDBIDYMD-UHFFFAOYSA-N

> <SMILES>
NC(=O)CN(CC(O)=O)CC(O)=O

> <JCHEM_ACCEPTOR_COUNT>
6

> <JCHEM_DONOR_COUNT>
3

> <JCHEM_ACIDIC_PKA>
2.31

> <JCHEM_BASIC_PKA>
5.96

> <JCHEM_PHYSIOLOGICAL_CHARGE>
-2

> <ALOGPS_LOGP>
-1.6

> <JCHEM_LOGP>
-3.9

> <ALOGPS_LOGS>
-0.59

> <JCHEM_POLARIZABILITY>
16.65

> <JCHEM_POLAR_SURFACE_AREA>
120.93

> <JCHEM_REFRACTIVITY>
40.06

> <JCHEM_ROTATABLE_BOND_COUNT>
6

> <ALOGPS_SOLUBILITY>
4.91e+01 g/l __ 

$$$$
