
  Mrv0541 02231216242D          

 33 35  0  0  1  0            999 V2000
   -1.8029   -3.9654    0.0000 C   0  0  0  0  0  0  0  0  0  0  0  0
   -1.0884   -3.5529    0.0000 N   0  3  0  0  0  0  0  0  0  0  0  0
   -0.3347   -3.8884    0.0000 C   0  0  0  0  0  0  0  0  0  0  0  0
    0.2173   -3.2753    0.0000 N   0  0  0  0  0  0  0  0  0  0  0  0
    1.0378   -3.3616    0.0000 C   0  0  2  0  0  0  0  0  0  0  0  0
    1.5898   -2.7485    0.0000 O   0  0  0  0  0  0  0  0  0  0  0  0
    2.3435   -3.0840    0.0000 C   0  0  1  0  0  0  0  0  0  0  0  0
    3.0580   -2.6715    0.0000 C   0  0  0  0  0  0  0  0  0  0  0  0
    3.7725   -3.0840    0.0000 O   0  0  0  0  0  0  0  0  0  0  0  0
    4.4869   -2.6715    0.0000 P   0  0  2  0  0  0  0  0  0  0  0  0
    4.0744   -1.9571    0.0000 O   0  0  0  0  0  0  0  0  0  0  0  0
    4.8994   -3.3860    0.0000 O   0  0  0  0  0  0  0  0  0  0  0  0
    5.2014   -2.2590    0.0000 O   0  0  0  0  0  0  0  0  0  0  0  0
    5.9159   -2.6715    0.0000 P   0  0  1  0  0  0  0  0  0  0  0  0
    6.3284   -1.9571    0.0000 O   0  0  0  0  0  0  0  0  0  0  0  0
    5.5034   -3.3860    0.0000 O   0  0  0  0  0  0  0  0  0  0  0  0
    6.6303   -3.0840    0.0000 O   0  0  0  0  0  0  0  0  0  0  0  0
    7.3448   -2.6715    0.0000 P   0  0  0  0  0  0  0  0  0  0  0  0
    8.0593   -2.2590    0.0000 O   0  0  0  0  0  0  0  0  0  0  0  0
    6.9323   -1.9571    0.0000 O   0  0  0  0  0  0  0  0  0  0  0  0
    7.7573   -3.3860    0.0000 O   0  0  0  0  0  0  0  0  0  0  0  0
    2.2573   -3.9045    0.0000 C   0  0  2  0  0  0  0  0  0  0  0  0
    2.8704   -4.4565    0.0000 O   0  0  0  0  0  0  0  0  0  0  0  0
    1.4503   -4.0760    0.0000 C   0  0  1  0  0  0  0  0  0  0  0  0
    1.1148   -4.8297    0.0000 O   0  0  0  0  0  0  0  0  0  0  0  0
   -0.1952   -2.5609    0.0000 C   0  0  0  0  0  0  0  0  0  0  0  0
   -1.0021   -2.7324    0.0000 C   0  0  0  0  0  0  0  0  0  0  0  0
   -1.5542   -2.1193    0.0000 C   0  0  0  0  0  0  0  0  0  0  0  0
   -2.3611   -2.2908    0.0000 O   0  0  0  0  0  0  0  0  0  0  0  0
   -1.2992   -1.3347    0.0000 N   0  0  0  0  0  0  0  0  0  0  0  0
   -0.4923   -1.1631    0.0000 C   0  0  0  0  0  0  0  0  0  0  0  0
   -0.2373   -0.3785    0.0000 N   0  0  0  0  0  0  0  0  0  0  0  0
    0.0598   -1.7762    0.0000 N   0  0  0  0  0  0  0  0  0  0  0  0
  1  2  1  0  0  0  0
  2  3  2  0  0  0  0
  3  4  1  0  0  0  0
  5  4  1  6  0  0  0
  5  6  1  0  0  0  0
  6  7  1  0  0  0  0
  7  8  1  1  0  0  0
  8  9  1  0  0  0  0
 10  9  1  1  0  0  0
 10 11  1  6  0  0  0
 10 12  2  0  0  0  0
 10 13  1  0  0  0  0
 14 13  1  6  0  0  0
 14 15  1  1  0  0  0
 14 16  2  0  0  0  0
 14 17  1  0  0  0  0
 17 18  1  0  0  0  0
 18 19  1  0  0  0  0
 18 20  1  0  0  0  0
 18 21  2  0  0  0  0
  7 22  1  0  0  0  0
 22 23  1  6  0  0  0
 22 24  1  0  0  0  0
  5 24  1  0  0  0  0
 24 25  1  1  0  0  0
  4 26  1  0  0  0  0
 26 27  2  0  0  0  0
  2 27  1  0  0  0  0
 27 28  1  0  0  0  0
 28 29  2  0  0  0  0
 28 30  1  0  0  0  0
 30 31  1  0  0  0  0
 31 32  1  0  0  0  0
 31 33  2  0  0  0  0
 26 33  1  0  0  0  0
M  END
> <DRUGBANK_ID>
DB02716

> <DRUG_GROUPS>
experimental

> <GENERIC_NAME>
7-Methyl-Guanosine-5'-Triphosphate

> <CHEMICAL_FORMULA>
C11H19N5O14P3

> <MOLECULAR_WEIGHT>
538.2149

> <EXACT_MASS>
538.014134877

> <IUPAC_NAME>
2-amino-9-[(2R,3R,4R,5S)-3,4-dihydroxy-5-({[hydroxy({[hydroxy(phosphonooxy)phosphoryl]oxy})phosphoryl]oxy}methyl)oxolan-2-yl]-7-methyl-6-oxo-6,9-dihydro-1H-purin-7-ium

> <IUPAC_TRADITIONAL_NAME>
2-amino-9-[(2R,3R,4R,5S)-3,4-dihydroxy-5-[({hydroxy[hydroxy(phosphonooxy)phosphoryl]oxyphosphoryl}oxy)methyl]oxolan-2-yl]-7-methyl-6-oxo-1H-purin-7-ium

> <INCHI_IDENTIFIER>
InChI=1S/C11H18N5O14P3/c1-15-3-16(8-5(15)9(19)14-11(12)13-8)10-7(18)6(17)4(28-10)2-27-32(23,24)30-33(25,26)29-31(20,21)22/h3-4,6-7,10,17-18H,2H2,1H3,(H6-,12,13,14,19,20,21,22,23,24,25,26)/p+1/t4-,6-,7+,10+/m0/s1

> <INCHI_KEY>
InChIKey=DKVRNHPCAOHRSI-FCIPNVEPSA-O

> <SMILES>
C[N+]1=CN([C@@H]2O[C@@H](CO[P@](O)(=O)O[P@@](O)(=O)OP(O)(O)=O)[C@H](O)[C@H]2O)C2=C1C(=O)NC(N)=N2

> <JCHEM_ACCEPTOR_COUNT>
13

> <JCHEM_DONOR_COUNT>
8

> <JCHEM_ACIDIC_PKA>
0.89

> <JCHEM_BASIC_PKA>
3.51

> <JCHEM_PHYSIOLOGICAL_CHARGE>
-2

> <ALOGPS_LOGP>
-0.93

> <JCHEM_LOGP>
-9.7

> <ALOGPS_LOGS>
-1.9

> <JCHEM_POLARIZABILITY>
41.84

> <JCHEM_POLAR_SURFACE_AREA>
285.8

> <JCHEM_REFRACTIVITY>
102.43

> <JCHEM_ROTATABLE_BOND_COUNT>
8

> <ALOGPS_SOLUBILITY>
8.02e+00 g/l __ 

$$$$
