
  Mrv0541 02231216042D          

  9  8  0  0  0  0            999 V2000
    1.7605    1.8414    0.0000 C   0  0  0  0  0  0  0  0  0  0  0  0
    2.4750    1.4289    0.0000 S   0  0  0  0  0  0  0  0  0  0  0  0
    3.1895    1.8414    0.0000 C   0  0  0  0  0  0  0  0  0  0  0  0
    3.9039    1.4289    0.0000 C   0  0  0  0  0  0  0  0  0  0  0  0
    4.6184    1.8414    0.0000 C   0  0  0  0  0  0  0  0  0  0  0  0
    4.6184    2.6664    0.0000 O   0  0  0  0  0  0  0  0  0  0  0  0
    5.3329    1.4289    0.0000 C   0  0  0  0  0  0  0  0  0  0  0  0
    6.0474    1.8414    0.0000 O   0  0  0  0  0  0  0  0  0  0  0  0
    5.3329    0.6039    0.0000 O   0  0  0  0  0  0  0  0  0  0  0  0
  1  2  1  0  0  0  0
  2  3  1  0  0  0  0
  3  4  1  0  0  0  0
  4  5  1  0  0  0  0
  5  6  2  0  0  0  0
  5  7  1  0  0  0  0
  7  8  1  0  0  0  0
  7  9  2  0  0  0  0
M  END
> <DRUGBANK_ID>
DB02238

> <DRUG_GROUPS>
experimental

> <GENERIC_NAME>
4-(Methylsulfanyl)-2-Oxobutanoic Acid

> <CHEMICAL_FORMULA>
C5H8O3S

> <MOLECULAR_WEIGHT>
148.18

> <EXACT_MASS>
148.019414812

> <IUPAC_NAME>
4-(methylsulfanyl)-2-oxobutanoic acid

> <IUPAC_TRADITIONAL_NAME>
4-(methylsulfanyl)-2-oxobutanoic acid

> <INCHI_IDENTIFIER>
InChI=1S/C5H8O3S/c1-9-3-2-4(6)5(7)8/h2-3H2,1H3,(H,7,8)

> <INCHI_KEY>
InChIKey=SXFSQZDSUWACKX-UHFFFAOYSA-N

> <SMILES>
CSCCC(=O)C(O)=O

> <JCHEM_ACCEPTOR_COUNT>
3

> <JCHEM_DONOR_COUNT>
1

> <JCHEM_ACIDIC_PKA>
3.3

> <JCHEM_BASIC_PKA>
-9.7

> <JCHEM_PHYSIOLOGICAL_CHARGE>
-1

> <ALOGPS_LOGP>
-0.07

> <JCHEM_LOGP>
1.12

> <ALOGPS_LOGS>
-1.3

> <JCHEM_POLARIZABILITY>
14.21

> <JCHEM_POLAR_SURFACE_AREA>
54.37

> <JCHEM_REFRACTIVITY>
35.07

> <JCHEM_ROTATABLE_BOND_COUNT>
4

> <ALOGPS_SOLUBILITY>
7.44e+00 g/l __ 

$$$$
