
  Mrv0541 02231216362D          

 21 22  0  0  1  0            999 V2000
    0.1067    4.7652    0.0000 C   0  0  0  0  0  0  0  0  0  0  0  0
   -0.6078    4.3527    0.0000 C   0  0  0  0  0  0  0  0  0  0  0  0
   -0.6078    3.5277    0.0000 C   0  0  0  0  0  0  0  0  0  0  0  0
   -1.3222    3.1152    0.0000 N   0  0  0  0  0  0  0  0  0  0  0  0
   -1.3222    2.2902    0.0000 C   0  0  1  0  0  0  0  0  0  0  0  0
   -0.6548    1.8053    0.0000 C   0  0  0  0  0  0  0  0  0  0  0  0
   -0.9097    1.0206    0.0000 C   0  0  1  0  0  0  0  0  0  0  0  0
   -0.4248    0.3532    0.0000 O   0  0  0  0  0  0  0  0  0  0  0  0
   -1.7347    1.0206    0.0000 C   0  0  2  0  0  0  0  0  0  0  0  0
   -2.2197    0.3532    0.0000 C   0  0  0  0  0  0  0  0  0  0  0  0
   -1.8841   -0.4005    0.0000 O   0  0  0  0  0  0  0  0  0  0  0  0
   -2.3690   -1.0679    0.0000 P   0  0  0  0  0  0  0  0  0  0  0  0
   -2.8539   -1.7354    0.0000 S   0  0  0  0  0  0  0  0  0  0  0  0
   -1.7016   -1.5528    0.0000 S   0  0  0  0  0  0  0  0  0  0  0  0
   -3.0365   -0.5830    0.0000 O   0  0  0  0  0  0  0  0  0  0  0  0
   -1.9897    1.8053    0.0000 O   0  0  0  0  0  0  0  0  0  0  0  0
   -2.0367    3.5277    0.0000 C   0  0  0  0  0  0  0  0  0  0  0  0
   -2.7512    3.1152    0.0000 O   0  0  0  0  0  0  0  0  0  0  0  0
   -2.0367    4.3527    0.0000 N   0  0  0  0  0  0  0  0  0  0  0  0
   -1.3222    4.7652    0.0000 C   0  0  0  0  0  0  0  0  0  0  0  0
   -1.3222    5.5902    0.0000 O   0  0  0  0  0  0  0  0  0  0  0  0
  1  2  1  0  0  0  0
  2  3  2  0  0  0  0
  3  4  1  0  0  0  0
  5  4  1  1  0  0  0
  5  6  1  0  0  0  0
  6  7  1  0  0  0  0
  7  8  1  1  0  0  0
  7  9  1  0  0  0  0
  9 10  1  6  0  0  0
 10 11  1  0  0  0  0
 11 12  1  0  0  0  0
 12 13  1  0  0  0  0
 12 14  1  0  0  0  0
 12 15  2  0  0  0  0
  9 16  1  0  0  0  0
  5 16  1  0  0  0  0
  4 17  1  0  0  0  0
 17 18  2  0  0  0  0
 17 19  1  0  0  0  0
 19 20  1  0  0  0  0
  2 20  1  0  0  0  0
 20 21  2  0  0  0  0
M  END
> <DRUGBANK_ID>
DB02980

> <DRUG_GROUPS>
experimental

> <GENERIC_NAME>
Thymidine-5'-(Dithio)Phosphate

> <CHEMICAL_FORMULA>
C10H15N2O6PS2

> <MOLECULAR_WEIGHT>
354.34

> <EXACT_MASS>
354.010914114

> <IUPAC_NAME>
[(2S,3R,5R)-3-hydroxy-5-(5-methyl-2,4-dioxo-1,2,3,4-tetrahydropyrimidin-1-yl)oxolan-2-yl]methyl disulfanylphosphinate

> <IUPAC_TRADITIONAL_NAME>
[(2S,3R,5R)-3-hydroxy-5-(5-methyl-2,4-dioxo-3H-pyrimidin-1-yl)oxolan-2-yl]methyl disulfanylphosphinate

> <INCHI_IDENTIFIER>
InChI=1S/C10H15N2O6PS2/c1-5-3-12(10(15)11-9(5)14)8-2-6(13)7(18-8)4-17-19(16,20)21/h3,6-8,13H,2,4H2,1H3,(H,11,14,15)(H2,16,20,21)/t6-,7+,8-/m1/s1

> <INCHI_KEY>
InChIKey=KMPXQZWMYQHTNT-GJMOJQLCSA-N

> <SMILES>
CC1=CN([C@H]2C[C@@H](O)[C@H](COP(S)(S)=O)O2)C(=O)NC1=O

> <JCHEM_ACCEPTOR_COUNT>
5

> <JCHEM_DONOR_COUNT>
4

> <JCHEM_ACIDIC_PKA>
0.87

> <JCHEM_BASIC_PKA>
-3.2

> <JCHEM_PHYSIOLOGICAL_CHARGE>
-2

> <ALOGPS_LOGP>
0.66

> <JCHEM_LOGP>
0.25

> <ALOGPS_LOGS>
-2.8

> <JCHEM_POLARIZABILITY>
31.78

> <JCHEM_POLAR_SURFACE_AREA>
105.17

> <JCHEM_REFRACTIVITY>
74.27

> <JCHEM_ROTATABLE_BOND_COUNT>
4

> <ALOGPS_SOLUBILITY>
5.28e-01 g/l __ 

$$$$
