
  Mrv0541 02231216282D          

 12 12  0  0  1  0            999 V2000
   -0.7145   -0.4125    0.0000 O   0  0  0  0  0  0  0  0  0  0  0  0
    0.0000    0.0000    0.0000 C   0  0  1  0  0  0  0  0  0  0  0  0
    0.0000    0.8250    0.0000 C   0  0  0  0  0  0  0  0  0  0  0  0
    0.7145    1.2375    0.0000 C   0  0  2  0  0  0  0  0  0  0  0  0
    0.1842    1.8695    0.0000 O   0  0  0  0  0  0  0  0  0  0  0  0
    1.4289    0.8250    0.0000 C   0  0  0  0  0  0  0  0  0  0  0  0
    1.4289    0.0000    0.0000 C   0  0  0  0  0  0  0  0  0  0  0  0
    0.7145   -0.4125    0.0000 C   0  0  2  0  0  0  0  0  0  0  0  0
    0.7145   -1.2375    0.0000 O   0  0  0  0  0  0  0  0  0  0  0  0
    1.2448    1.8695    0.0000 C   0  0  0  0  0  0  0  0  0  0  0  0
    0.9626    2.6447    0.0000 O   0  0  0  0  0  0  0  0  0  0  0  0
    2.0572    1.7262    0.0000 O   0  0  0  0  0  0  0  0  0  0  0  0
  2  1  1  1  0  0  0
  2  3  1  0  0  0  0
  3  4  1  0  0  0  0
  4  5  1  6  0  0  0
  4  6  1  0  0  0  0
  6  7  2  0  0  0  0
  7  8  1  0  0  0  0
  2  8  1  0  0  0  0
  8  9  1  6  0  0  0
  4 10  1  1  0  0  0
 10 11  1  0  0  0  0
 10 12  2  0  0  0  0
M  END
> <DRUGBANK_ID>
DB02801

> <DRUG_GROUPS>
experimental

> <GENERIC_NAME>
2,3 -Anhydro-Quinic Acid

> <CHEMICAL_FORMULA>
C7H10O5

> <MOLECULAR_WEIGHT>
174.1513

> <EXACT_MASS>
174.05282343

> <IUPAC_NAME>
(1S,4S,5S)-1,4,5-trihydroxycyclohex-2-ene-1-carboxylic acid

> <IUPAC_TRADITIONAL_NAME>
2,3 -anhydro-quinic acid

> <INCHI_IDENTIFIER>
InChI=1S/C7H10O5/c8-4-1-2-7(12,6(10)11)3-5(4)9/h1-2,4-5,8-9,12H,3H2,(H,10,11)/t4-,5-,7+/m0/s1

> <INCHI_KEY>
InChIKey=VTEDVYGIJPLVFF-KZLJYQGOSA-N

> <SMILES>
O[C@H]1C[C@](O)(C=C[C@@H]1O)C(O)=O

> <JCHEM_ACCEPTOR_COUNT>
5

> <JCHEM_DONOR_COUNT>
4

> <JCHEM_ACIDIC_PKA>
3.49

> <JCHEM_BASIC_PKA>
-3.2

> <JCHEM_PHYSIOLOGICAL_CHARGE>
-1

> <ALOGPS_LOGP>
-1.7

> <JCHEM_LOGP>
-1.6

> <ALOGPS_LOGS>
0.24

> <JCHEM_POLARIZABILITY>
15.35

> <JCHEM_POLAR_SURFACE_AREA>
97.99

> <JCHEM_REFRACTIVITY>
39.2

> <JCHEM_ROTATABLE_BOND_COUNT>
1

> <ALOGPS_SOLUBILITY>
3.03e+02 g/l __ 

$$$$
