
  Mrv0541 02231217092D          

  8  7  0  0  0  0            999 V2000
    1.6500    1.4289    0.0000 N   0  3  0  0  0  0  0  0  0  0  0  0
    1.2375    0.7145    0.0000 C   0  0  0  0  0  0  0  0  0  0  0  0
    0.5230    1.1270    0.0000 C   0  0  0  0  0  0  0  0  0  0  0  0
   -0.1914    0.7145    0.0000 O   0  0  0  0  0  0  0  0  0  0  0  0
    1.9520    0.3020    0.0000 C   0  0  0  0  0  0  0  0  0  0  0  0
    2.6664    0.7145    0.0000 O   0  0  0  0  0  0  0  0  0  0  0  0
    0.8250    0.0000    0.0000 C   0  0  0  0  0  0  0  0  0  0  0  0
    0.0000    0.0000    0.0000 O   0  0  0  0  0  0  0  0  0  0  0  0
  1  2  1  0  0  0  0
  2  3  1  0  0  0  0
  3  4  1  0  0  0  0
  2  5  1  0  0  0  0
  5  6  1  0  0  0  0
  2  7  1  0  0  0  0
  7  8  1  0  0  0  0
M  END
> <DRUGBANK_ID>
DB03754

> <DRUG_GROUPS>
experimental

> <GENERIC_NAME>
Tris(Hydroxymethyl)Aminomethane

> <CHEMICAL_FORMULA>
C4H12NO3

> <MOLECULAR_WEIGHT>
122.143

> <EXACT_MASS>
122.081718255

> <IUPAC_NAME>
1,3-dihydroxy-2-(hydroxymethyl)propan-2-aminium

> <IUPAC_TRADITIONAL_NAME>
htris

> <INCHI_IDENTIFIER>
InChI=1S/C4H11NO3/c5-4(1-6,2-7)3-8/h6-8H,1-3,5H2/p+1

> <INCHI_KEY>
InChIKey=LENZDBCJOHFCAS-UHFFFAOYSA-O

> <SMILES>
[NH3+]C(CO)(CO)CO

> <JCHEM_ACCEPTOR_COUNT>
3

> <JCHEM_DONOR_COUNT>
4

> <JCHEM_ACIDIC_PKA>
14.16

> <JCHEM_BASIC_PKA>
8.95

> <JCHEM_PHYSIOLOGICAL_CHARGE>
1

> <ALOGPS_LOGP>
-2.5

> <JCHEM_LOGP>
-2.7

> <ALOGPS_LOGS>
0.37

> <JCHEM_POLARIZABILITY>
12.37

> <JCHEM_POLAR_SURFACE_AREA>
88.33

> <JCHEM_REFRACTIVITY>
39.65

> <JCHEM_ROTATABLE_BOND_COUNT>
3

> <ALOGPS_SOLUBILITY>
3.70e+02 g/l __ 

$$$$
