
  Mrv0541 02231216562D          

 33 35  0  0  0  0            999 V2000
    0.0000   -1.6500    0.0000 C   0  0  0  0  0  0  0  0  0  0  0  0
    0.7145   -1.2375    0.0000 C   0  0  0  0  0  0  0  0  0  0  0  0
    0.7145   -0.4125    0.0000 C   0  0  0  0  0  0  0  0  0  0  0  0
    1.4289    0.0000    0.0000 C   0  0  0  0  0  0  0  0  0  0  0  0
    2.1434   -0.4125    0.0000 C   0  0  0  0  0  0  0  0  0  0  0  0
    2.1434   -1.2375    0.0000 C   0  0  0  0  0  0  0  0  0  0  0  0
    1.4289   -1.6500    0.0000 C   0  0  0  0  0  0  0  0  0  0  0  0
    1.4289   -2.4750    0.0000 N   0  0  0  0  0  0  0  0  0  0  0  0
    2.0964   -2.9599    0.0000 N   0  0  0  0  0  0  0  0  0  0  0  0
    1.8414   -3.7445    0.0000 C   0  0  0  0  0  0  0  0  0  0  0  0
    2.3264   -4.4120    0.0000 C   0  0  0  0  0  0  0  0  0  0  0  0
    1.0164   -3.7445    0.0000 C   0  0  0  0  0  0  0  0  0  0  0  0
    0.5315   -4.4120    0.0000 N   0  0  0  0  0  0  0  0  0  0  0  0
    0.8671   -5.1657    0.0000 N   0  0  0  0  0  0  0  0  0  0  0  0
    0.3822   -5.8331    0.0000 C   0  0  0  0  0  0  0  0  0  0  0  0
    0.7177   -6.5868    0.0000 C   0  0  0  0  0  0  0  0  0  0  0  0
    0.2328   -7.2542    0.0000 C   0  0  0  0  0  0  0  0  0  0  0  0
   -0.5877   -7.1680    0.0000 C   0  0  0  0  0  0  0  0  0  0  0  0
   -0.9232   -6.4143    0.0000 C   0  0  0  0  0  0  0  0  0  0  0  0
   -0.4383   -5.7469    0.0000 C   0  0  0  0  0  0  0  0  0  0  0  0
   -0.7739   -4.9932    0.0000 C   0  0  0  0  0  0  0  0  0  0  0  0
   -0.2890   -4.3257    0.0000 O   0  0  0  0  0  0  0  0  0  0  0  0
   -1.5944   -4.9070    0.0000 O   0  0  0  0  0  0  0  0  0  0  0  0
    0.5683   -8.0079    0.0000 S   0  0  0  0  0  0  0  0  0  0  0  0
    0.9039   -8.7616    0.0000 O   0  0  0  0  0  0  0  0  0  0  0  0
    1.3220   -7.6723    0.0000 O   0  0  0  0  0  0  0  0  0  0  0  0
   -0.1853   -8.3434    0.0000 O   0  0  0  0  0  0  0  0  0  0  0  0
    0.7615   -2.9599    0.0000 C   0  0  0  0  0  0  0  0  0  0  0  0
   -0.0231   -2.7050    0.0000 O   0  0  0  0  0  0  0  0  0  0  0  0
    1.4289    0.8250    0.0000 S   0  0  0  0  0  0  0  0  0  0  0  0
    1.4289    1.6500    0.0000 O   0  0  0  0  0  0  0  0  0  0  0  0
    2.2539    0.8250    0.0000 O   0  0  0  0  0  0  0  0  0  0  0  0
    0.6039    0.8250    0.0000 O   0  0  0  0  0  0  0  0  0  0  0  0
  1  2  1  0  0  0  0
  2  3  2  0  0  0  0
  3  4  1  0  0  0  0
  4  5  2  0  0  0  0
  5  6  1  0  0  0  0
  6  7  2  0  0  0  0
  2  7  1  0  0  0  0
  7  8  1  0  0  0  0
  8  9  1  0  0  0  0
  9 10  2  0  0  0  0
 10 11  1  0  0  0  0
 10 12  1  0  0  0  0
 12 13  1  0  0  0  0
 13 14  2  0  0  0  0
 14 15  1  0  0  0  0
 15 16  2  0  0  0  0
 16 17  1  0  0  0  0
 17 18  2  0  0  0  0
 18 19  1  0  0  0  0
 19 20  2  0  0  0  0
 15 20  1  0  0  0  0
 20 21  1  0  0  0  0
 21 22  1  0  0  0  0
 21 23  2  0  0  0  0
 17 24  1  0  0  0  0
 24 25  1  0  0  0  0
 24 26  2  0  0  0  0
 24 27  2  0  0  0  0
 12 28  2  0  0  0  0
  8 28  1  0  0  0  0
 28 29  1  0  0  0  0
  4 30  1  0  0  0  0
 30 31  1  0  0  0  0
 30 32  2  0  0  0  0
 30 33  2  0  0  0  0
M  END
> <DRUGBANK_ID>
DB03442

> <DRUG_GROUPS>
experimental

> <GENERIC_NAME>
2-[5-Hydroxy-3-Methyl-1-(2-Methyl-4-Sulfo-Phenyl)-1h-Pyrazol-4-Ylazo]-4-Sulfo-Benzoic Acid

> <CHEMICAL_FORMULA>
C18H16N4O9S2

> <MOLECULAR_WEIGHT>
496.471

> <EXACT_MASS>
496.03586951

> <IUPAC_NAME>
2-[(E)-2-[5-hydroxy-3-methyl-1-(2-methyl-4-sulfophenyl)-1H-pyrazol-4-yl]diazen-1-yl]-4-sulfobenzoic acid

> <IUPAC_TRADITIONAL_NAME>
2-[(E)-2-[5-hydroxy-3-methyl-1-(2-methyl-4-sulfophenyl)pyrazol-4-yl]diazen-1-yl]-4-sulfobenzoic acid

> <INCHI_IDENTIFIER>
InChI=1S/C18H16N4O9S2/c1-9-7-11(32(26,27)28)4-6-15(9)22-17(23)16(10(2)21-22)20-19-14-8-12(33(29,30)31)3-5-13(14)18(24)25/h3-8,23H,1-2H3,(H,24,25)(H,26,27,28)(H,29,30,31)/b20-19+

> <INCHI_KEY>
InChIKey=NOQURKNIKJDEPW-FMQUCBEESA-N

> <SMILES>
CC1=NN(C(O)=C1\N=N\C1=CC(=CC=C1C(O)=O)S(O)(=O)=O)C1=CC=C(C=C1C)S(O)(=O)=O

> <JCHEM_ACCEPTOR_COUNT>
12

> <JCHEM_DONOR_COUNT>
4

> <JCHEM_ACIDIC_PKA>
-2.8

> <JCHEM_BASIC_PKA>
1.49

> <JCHEM_PHYSIOLOGICAL_CHARGE>
-4

> <ALOGPS_LOGP>
-0.35

> <JCHEM_LOGP>
-1.9

> <ALOGPS_LOGS>
-3.5

> <JCHEM_POLARIZABILITY>
47.15

> <JCHEM_POLAR_SURFACE_AREA>
208.81

> <JCHEM_REFRACTIVITY>
118.11

> <JCHEM_ROTATABLE_BOND_COUNT>
6

> <ALOGPS_SOLUBILITY>
1.56e-01 g/l __ 

$$$$
