
  Mrv0541 02231216482D          

 27 29  0  0  0  0            999 V2000
   -4.2868   -6.6000    0.0000 C    0  0  0  0  0  0  0  0  0  0  0  0
   -4.2868   -5.7750    0.0000 N    0  0  0  0  0  0  0  0  0  0  0  0
   -5.0013   -5.3625    0.0000 C    0  0  0  0  0  0  0  0  0  0  0  0
   -5.7158   -5.7750    0.0000 C    0  0  0  0  0  0  0  0  0  0  0  0
   -6.4302   -5.3625    0.0000 C    0  0  0  0  0  0  0  0  0  0  0  0
   -3.5724   -5.3625    0.0000 C    0  0  0  0  0  0  0  0  0  0  0  0
   -2.8579   -5.7750    0.0000 C    0  0  0  0  0  0  0  0  0  0  0  0
   -2.1434   -5.3625    0.0000 C    0  0  0  0  0  0  0  0  0  0  0  0
   -1.4289   -5.7750    0.0000 C    0  0  0  0  0  0  0  0  0  0  0  0
   -1.4289   -6.6000    0.0000 C    0  0  0  0  0  0  0  0  0  0  0  0
   -2.1434   -7.0125    0.0000 C    0  0  0  0  0  0  0  0  0  0  0  0
   -2.8579   -6.6000    0.0000 C    0  0  0  0  0  0  0  0  0  0  0  0
   -0.7145   -7.0125    0.0000 C    0  0  0  0  0  0  0  0  0  0  0  0
    0.0000   -6.6000    0.0000 C    0  0  0  0  0  0  0  0  0  0  0  0
    0.7145   -7.0125    0.0000 C    0  0  0  0  0  0  0  0  0  0  0  0
    0.7145   -7.8375    0.0000 C    0  0  0  0  0  0  0  0  0  0  0  0
    0.0000   -8.2500    0.0000 C    0  0  0  0  0  0  0  0  0  0  0  0
   -0.7145   -7.8375    0.0000 C    0  0  0  0  0  0  0  0  0  0  0  0
    1.4289   -8.2500    0.0000 C    0  0  0  0  0  0  0  0  0  0  0  0
    1.4289   -9.0750    0.0000 O    0  0  0  0  0  0  0  0  0  0  0  0
    2.1434   -7.8375    0.0000 C    0  0  0  0  0  0  0  0  0  0  0  0
    2.1434   -7.0125    0.0000 C    0  0  0  0  0  0  0  0  0  0  0  0
    2.8579   -6.6000    0.0000 C    0  0  0  0  0  0  0  0  0  0  0  0
    3.5724   -7.0125    0.0000 C    0  0  0  0  0  0  0  0  0  0  0  0
    4.2868   -6.6000    0.0000 Br   0  0  0  0  0  0  0  0  0  0  0  0
    3.5724   -7.8375    0.0000 C    0  0  0  0  0  0  0  0  0  0  0  0
    2.8579   -8.2500    0.0000 C    0  0  0  0  0  0  0  0  0  0  0  0
  1  2  1  0  0  0  0
  2  3  1  0  0  0  0
  3  4  1  0  0  0  0
  4  5  2  0  0  0  0
  2  6  1  0  0  0  0
  6  7  1  0  0  0  0
  7  8  2  0  0  0  0
  8  9  1  0  0  0  0
  9 10  2  0  0  0  0
 10 11  1  0  0  0  0
 11 12  2  0  0  0  0
  7 12  1  0  0  0  0
 10 13  1  0  0  0  0
 13 14  2  0  0  0  0
 14 15  1  0  0  0  0
 15 16  2  0  0  0  0
 16 17  1  0  0  0  0
 17 18  2  0  0  0  0
 13 18  1  0  0  0  0
 16 19  1  0  0  0  0
 19 20  2  0  0  0  0
 19 21  1  0  0  0  0
 21 22  2  0  0  0  0
 22 23  1  0  0  0  0
 23 24  2  0  0  0  0
 24 25  1  0  0  0  0
 24 26  1  0  0  0  0
 26 27  2  0  0  0  0
 21 27  1  0  0  0  0
M  END
> <DRUGBANK_ID>
DB03234

> <DRUG_GROUPS>
experimental

> <GENERIC_NAME>
(4'-{[Allyl(Methyl)Amino]Methyl}-1,1'-Biphenyl-4-Yl)(4-Bromophenyl)Methanone

> <CHEMICAL_FORMULA>
C24H22BrNO

> <MOLECULAR_WEIGHT>
420.342

> <EXACT_MASS>
419.088476978

> <IUPAC_NAME>
[(4-{4-[(4-bromophenyl)carbonyl]phenyl}phenyl)methyl](methyl)(prop-2-en-1-yl)amine

> <IUPAC_TRADITIONAL_NAME>
[(4-{4-[(4-bromophenyl)carbonyl]phenyl}phenyl)methyl](methyl)prop-2-en-1-ylamine

> <INCHI_IDENTIFIER>
InChI=1S/C24H22BrNO/c1-3-16-26(2)17-18-4-6-19(7-5-18)20-8-10-21(11-9-20)24(27)22-12-14-23(25)15-13-22/h3-15H,1,16-17H2,2H3

> <INCHI_KEY>
InChIKey=YATCZCSDJCQNAL-UHFFFAOYSA-N

> <SMILES>
CN(CC=C)CC1=CC=C(C=C1)C1=CC=C(C=C1)C(=O)C1=CC=C(Br)C=C1

> <JCHEM_ACCEPTOR_COUNT>
2

> <JCHEM_DONOR_COUNT>
0

> <JCHEM_BASIC_PKA>
8.53

> <JCHEM_PHYSIOLOGICAL_CHARGE>
1

> <ALOGPS_LOGP>
5.79

> <JCHEM_LOGP>
6.52

> <ALOGPS_LOGS>
-6.7

> <JCHEM_POLARIZABILITY>
44.21

> <JCHEM_POLAR_SURFACE_AREA>
20.31

> <JCHEM_REFRACTIVITY>
117.1

> <JCHEM_ROTATABLE_BOND_COUNT>
7

> <ALOGPS_SOLUBILITY>
8.61e-05 g/l __ 

$$$$
