PU4
  Mrv0541 02231217152D          

 23 25  0  0  0  0            999 V2000
    1.3877    3.5210    0.0000 C   0  0  0  0  0  0  0  0  0  0  0  0
    0.8356    2.9079    0.0000 C   0  0  0  0  0  0  0  0  0  0  0  0
    1.0906    2.1233    0.0000 C   0  0  0  0  0  0  0  0  0  0  0  0
    0.5386    1.5102    0.0000 C   0  0  0  0  0  0  0  0  0  0  0  0
    0.7935    0.7256    0.0000 N   0  0  0  0  0  0  0  0  0  0  0  0
    1.5781    0.4706    0.0000 C   0  0  0  0  0  0  0  0  0  0  0  0
    2.2926    0.8831    0.0000 N   0  0  0  0  0  0  0  0  0  0  0  0
    3.0071    0.4706    0.0000 C   0  0  0  0  0  0  0  0  0  0  0  0
    3.0071   -0.3544    0.0000 N   0  0  0  0  0  0  0  0  0  0  0  0
    1.5781   -0.3544    0.0000 C   0  0  0  0  0  0  0  0  0  0  0  0
    2.2926   -0.7669    0.0000 C   0  0  0  0  0  0  0  0  0  0  0  0
    2.2926   -1.5919    0.0000 N   0  0  0  0  0  0  0  0  0  0  0  0
    0.7935   -0.6093    0.0000 N   0  0  0  0  0  0  0  0  0  0  0  0
    0.3086    0.0581    0.0000 C   0  0  0  0  0  0  0  0  0  0  0  0
   -0.5164    0.0581    0.0000 C   0  0  0  0  0  0  0  0  0  0  0  0
   -0.9289   -0.6564    0.0000 C   0  0  0  0  0  0  0  0  0  0  0  0
   -0.5164   -1.3708    0.0000 C   0  0  0  0  0  0  0  0  0  0  0  0
   -0.9289   -2.0853    0.0000 C   0  0  0  0  0  0  0  0  0  0  0  0
   -1.7539   -0.6564    0.0000 C   0  0  0  0  0  0  0  0  0  0  0  0
   -2.1664   -1.3708    0.0000 C   0  0  0  0  0  0  0  0  0  0  0  0
   -1.7539   -2.0853    0.0000 C   0  0  0  0  0  0  0  0  0  0  0  0
   -2.1664   -2.7998    0.0000 O   0  0  0  0  0  0  0  0  0  0  0  0
   -1.7539   -3.5142    0.0000 C   0  0  0  0  0  0  0  0  0  0  0  0
  1  2  1  0  0  0  0
  2  3  1  0  0  0  0
  3  4  1  0  0  0  0
  4  5  1  0  0  0  0
  5  6  1  0  0  0  0
  5 14  1  0  0  0  0
  6  7  2  0  0  0  0
  6 10  1  0  0  0  0
  7  8  1  0  0  0  0
  8  9  2  0  0  0  0
  9 11  1  0  0  0  0
 10 11  2  0  0  0  0
 10 13  1  0  0  0  0
 11 12  1  0  0  0  0
 13 14  2  0  0  0  0
 14 15  1  0  0  0  0
 15 16  1  0  0  0  0
 16 17  2  0  0  0  0
 16 19  1  0  0  0  0
 17 18  1  0  0  0  0
 18 21  2  0  0  0  0
 19 20  2  0  0  0  0
 20 21  1  0  0  0  0
 21 22  1  0  0  0  0
 22 23  1  0  0  0  0
M  END
> <DRUGBANK_ID>
DB03899

> <DRUG_GROUPS>
experimental

> <GENERIC_NAME>
9-Butyl-8-(4-Methoxybenzyl)-9h-Purin-6-Amine

> <CHEMICAL_FORMULA>
C17H21N5O

> <MOLECULAR_WEIGHT>
311.3815

> <EXACT_MASS>
311.174610319

> <IUPAC_NAME>
9-butyl-8-[(4-methoxyphenyl)methyl]-9H-purin-6-amine

> <IUPAC_TRADITIONAL_NAME>
9-butyl-8-[(4-methoxyphenyl)methyl]purin-6-amine

> <INCHI_IDENTIFIER>
InChI=1S/C17H21N5O/c1-3-4-9-22-14(10-12-5-7-13(23-2)8-6-12)21-15-16(18)19-11-20-17(15)22/h5-8,11H,3-4,9-10H2,1-2H3,(H2,18,19,20)

> <INCHI_KEY>
InChIKey=NVYATAJRTRFKSW-UHFFFAOYSA-N

> <SMILES>
CCCCN1C(CC2=CC=C(OC)C=C2)=NC2=C(N)N=CN=C12

> <JCHEM_ACCEPTOR_COUNT>
5

> <JCHEM_DONOR_COUNT>
1

> <JCHEM_ACIDIC_PKA>
18.6

> <JCHEM_BASIC_PKA>
5.07

> <JCHEM_PHYSIOLOGICAL_CHARGE>
0

> <ALOGPS_LOGP>
3.02

> <JCHEM_LOGP>
2.82

> <ALOGPS_LOGS>
-3.6

> <JCHEM_POLARIZABILITY>
34.56

> <JCHEM_POLAR_SURFACE_AREA>
78.85

> <JCHEM_REFRACTIVITY>
91

> <JCHEM_ROTATABLE_BOND_COUNT>
6

> <ALOGPS_SOLUBILITY>
7.06e-02 g/l __ 

$$$$
