
  Mrv0541 02231217132D          

 61 64  0  0  1  0            999 V2000
    8.2137    3.3210    0.0000 C   0  0  0  0  0  0  0  0  0  0  0  0
    7.4210    3.0922    0.0000 O   0  0  0  0  0  0  0  0  0  0  0  0
    7.2229    2.2913    0.0000 C   0  0  2  0  0  0  0  0  0  0  0  0
    6.4302    2.0625    0.0000 C   0  0  0  0  0  0  0  0  0  0  0  0
    6.2321    1.2617    0.0000 C   0  0  1  0  0  0  0  0  0  0  0  0
    6.8266    0.6896    0.0000 O   0  0  0  0  0  0  0  0  0  0  0  0
    6.6284   -0.1112    0.0000 C   0  0  0  0  0  0  0  0  0  0  0  0
    5.8358   -0.3400    0.0000 O   0  0  0  0  0  0  0  0  0  0  0  0
    7.2229   -0.6833    0.0000 C   0  0  0  0  0  0  0  0  0  0  0  0
    7.0247   -1.4841    0.0000 C   0  0  2  0  0  0  0  0  0  0  0  0
    7.6192   -2.0561    0.0000 O   0  0  0  0  0  0  0  0  0  0  0  0
    6.2321   -1.7129    0.0000 C   0  0  0  0  0  0  0  0  0  0  0  0
    5.6376   -1.1409    0.0000 C   0  0  1  0  0  0  0  0  0  0  0  0
    5.3272   -0.3765    0.0000 O   0  0  0  0  0  0  0  0  0  0  0  0
    4.8450   -1.3697    0.0000 C   0  0  0  0  0  0  0  0  0  0  0  0
    4.2505   -0.7977    0.0000 C   0  0  0  0  0  0  0  0  0  0  0  0
    4.4487    0.0032    0.0000 O   0  0  0  0  0  0  0  0  0  0  0  0
    3.4579   -1.0265    0.0000 C   0  0  1  0  0  0  0  0  0  0  0  0
    3.2597   -1.8273    0.0000 C   0  0  0  0  0  0  0  0  0  0  0  0
    2.8634   -0.4545    0.0000 C   0  0  1  0  0  0  0  0  0  0  0  0
    2.6652   -1.2553    0.0000 O   0  0  0  0  0  0  0  0  0  0  0  0
    1.9821   -1.7179    0.0000 C   0  0  0  0  0  0  0  0  0  0  0  0
    2.0707   -0.6833    0.0000 C   0  0  0  0  0  0  0  0  0  0  0  0
    1.6348   -1.3837    0.0000 C   0  0  0  0  0  0  0  0  0  0  0  0
    0.8340   -1.1855    0.0000 O   0  0  0  0  0  0  0  0  0  0  0  0
    0.6836   -0.3400    0.0000 C   0  0  0  0  0  0  0  0  0  0  0  0
    1.4763   -0.1112    0.0000 N   0  0  0  0  0  0  0  0  0  0  0  0
    0.0892    0.2320    0.0000 C   0  0  0  0  0  0  0  0  0  0  0  0
    0.8343    0.5861    0.0000 C   0  0  0  0  0  0  0  0  0  0  0  0
    0.7880    1.3043    0.0000 O   0  0  0  0  0  0  0  0  0  0  0  0
   -0.1209    1.8447    0.0000 C   0  0  0  0  0  0  0  0  0  0  0  0
    0.2678    1.1170    0.0000 N   0  0  0  0  0  0  0  0  0  0  0  0
    0.4512    2.4392    0.0000 C   0  0  0  0  0  0  0  0  0  0  0  0
    0.6337    1.6346    0.0000 C   0  0  0  0  0  0  0  0  0  0  0  0
    1.4553    1.5596    0.0000 O   0  0  0  0  0  0  0  0  0  0  0  0
    2.0707    2.2913    0.0000 C   0  0  0  0  0  0  0  0  0  0  0  0
    2.6652    1.7193    0.0000 C   0  0  0  0  0  0  0  0  0  0  0  0
    3.4579    1.9481    0.0000 C   0  0  0  0  0  0  0  0  0  0  0  0
    4.0523    1.3761    0.0000 C   0  0  0  0  0  0  0  0  0  0  0  0
    4.8450    1.6049    0.0000 C   0  0  0  0  0  0  0  0  0  0  0  0
    5.4394    1.0328    0.0000 C   0  0  2  0  0  0  0  0  0  0  0  0
    5.2413    0.2320    0.0000 C   0  0  0  0  0  0  0  0  0  0  0  0
    1.1933    2.0788    0.0000 N   0  0  0  0  0  0  0  0  0  0  0  0
    7.8173    1.7193    0.0000 C   0  0  2  0  0  0  0  0  0  0  0  0
    7.6192    0.9184    0.0000 C   0  0  0  0  0  0  0  0  0  0  0  0
    8.6100    1.9481    0.0000 C   0  0  0  0  0  0  0  0  0  0  0  0
    9.2045    1.3761    0.0000 C   0  0  0  0  0  0  0  0  0  0  0  0
    9.9971    1.6049    0.0000 C   0  0  0  0  0  0  0  0  0  0  0  0
   10.1953    2.4057    0.0000 O   0  0  0  0  0  0  0  0  0  0  0  0
   10.5916    1.0328    0.0000 C   0  0  1  0  0  0  0  0  0  0  0  0
   10.3934    0.2320    0.0000 C   0  0  0  0  0  0  0  0  0  0  0  0
   11.3842    1.2617    0.0000 C   0  0  1  0  0  0  0  0  0  0  0  0
   11.9787    0.6896    0.0000 C   0  0  0  0  0  0  0  0  0  0  0  0
   12.7713    0.9184    0.0000 C   0  0  0  0  0  0  0  0  0  0  0  0
   13.3658    0.3464    0.0000 C   0  0  0  0  0  0  0  0  0  0  0  0
   14.1584    0.5752    0.0000 N   0  0  0  0  0  0  0  0  0  0  0  0
   14.3566    1.3761    0.0000 C   0  0  0  0  0  0  0  0  0  0  0  0
   14.7529    0.0032    0.0000 C   0  0  0  0  0  0  0  0  0  0  0  0
   15.5455    0.2320    0.0000 O   0  0  0  0  0  0  0  0  0  0  0  0
   11.5824    2.0625    0.0000 O   0  0  0  0  0  0  0  0  0  0  0  0
   12.3750    2.2913    0.0000 C   0  0  0  0  0  0  0  0  0  0  0  0
  1  2  1  0  0  0  0
  3  2  1  1  0  0  0
  3  4  1  0  0  0  0
  5  4  1  1  0  0  0
  5  6  1  0  0  0  0
  6  7  1  0  0  0  0
  7  8  2  0  0  0  0
  7  9  1  0  0  0  0
  9 10  1  0  0  0  0
 10 11  1  6  0  0  0
 10 12  1  0  0  0  0
 12 13  1  0  0  0  0
 13 14  1  6  0  0  0
 13 15  1  0  0  0  0
 15 16  1  0  0  0  0
 16 17  2  0  0  0  0
 16 18  1  0  0  0  0
 18 19  1  1  0  0  0
 18 20  1  0  0  0  0
 20 21  1  6  0  0  0
 21 22  1  0  0  0  0
 20 23  1  0  0  0  0
 23 24  2  0  0  0  0
 24 25  1  0  0  0  0
 25 26  1  0  0  0  0
 26 27  2  0  0  0  0
 23 27  1  0  0  0  0
 26 28  1  0  0  0  0
 28 29  2  0  0  0  0
 29 30  1  0  0  0  0
 30 31  1  0  0  0  0
 31 32  2  0  0  0  0
 28 32  1  0  0  0  0
 31 33  1  0  0  0  0
 33 34  2  0  0  0  0
 34 35  1  0  0  0  0
 35 36  1  0  0  0  0
 36 37  1  0  0  0  0
 37 38  2  0  0  0  0
 38 39  1  0  0  0  0
 39 40  1  0  0  0  0
 40 41  1  0  0  0  0
  5 41  1  0  0  0  0
 41 42  1  1  0  0  0
 36 43  2  0  0  0  0
 33 43  1  0  0  0  0
  3 44  1  0  0  0  0
 44 45  1  1  0  0  0
 44 46  1  0  0  0  0
 46 47  1  0  0  0  0
 47 48  1  0  0  0  0
 48 49  2  0  0  0  0
 48 50  1  0  0  0  0
 50 51  1  6  0  0  0
 50 52  1  0  0  0  0
 52 53  1  0  0  0  0
 53 54  1  0  0  0  0
 54 55  2  0  0  0  0
 55 56  1  0  0  0  0
 56 57  1  0  0  0  0
 56 58  1  0  0  0  0
 58 59  1  0  0  0  0
 52 60  1  6  0  0  0
 60 61  1  0  0  0  0
M  END
> <DRUGBANK_ID>
DB03850

> <DRUG_GROUPS>
experimental

> <GENERIC_NAME>
Jaspisamide A

> <CHEMICAL_FORMULA>
C44H64N4O13

> <MOLECULAR_WEIGHT>
856.998

> <EXACT_MASS>
856.446988154

> <IUPAC_NAME>
(10R,11S,14R,16R,20R,21S)-14,16-dihydroxy-20-[(2R,3R,7S,8R,10E)-11-[(hydroxymethyl)(methyl)amino]-2,8-dimethoxy-3,7-dimethyl-6-oxoundec-10-en-1-yl]-10-methoxy-11,21-dimethyl-3,7,19,27-tetraoxa-29,30,31-triazatetracyclo[24.2.1.1^{2,5}.1^{6,9}]hentriaconta-1(28),2(31),4,6(30),8,24,26(29)-heptaene-12,18-dione

> <IUPAC_TRADITIONAL_NAME>
(10R,11S,14R,16R,20R,21S)-14,16-dihydroxy-20-[(2R,3R,7S,8R,10E)-11-[(hydroxymethyl)(methyl)amino]-2,8-dimethoxy-3,7-dimethyl-6-oxoundec-10-en-1-yl]-10-methoxy-11,21-dimethyl-3,7,19,27-tetraoxa-29,30,31-triazatetracyclo[24.2.1.1^{2,5}.1^{6,9}]hentriaconta-1(28),2(31),4,6(30),8,24,26(29)-heptaene-12,18-dione

> <INCHI_IDENTIFIER>
InChI=1S/C44H64N4O13/c1-26-12-9-10-14-40-45-33(23-58-40)43-47-34(24-60-43)44-46-32(22-59-44)42(57-8)29(4)36(53)19-30(50)18-31(51)20-41(54)61-39(26)21-38(56-7)27(2)15-16-35(52)28(3)37(55-6)13-11-17-48(5)25-49/h10-11,14,17,22-24,26-31,37-39,42,49-51H,9,12-13,15-16,18-21,25H2,1-8H3/b14-10+,17-11+/t26-,27+,28+,29+,30+,31+,37+,38+,39+,42+/m0/s1

> <INCHI_KEY>
InChIKey=VMTDLKOWOZYTPX-CQJHWTDNSA-N

> <SMILES>
CO[C@H](C\C=C\N(C)CO)[C@H](C)C(=O)CC[C@@H](C)[C@@H](C[C@H]1OC(=O)C[C@H](O)C[C@@H](O)CC(=O)[C@@H](C)[C@@H](OC)C2=COC(=N2)C2=COC(=N2)C2=COC(\C=C\CC[C@@H]1C)=N2)OC

> <JCHEM_ACCEPTOR_COUNT>
13

> <JCHEM_DONOR_COUNT>
3

> <JCHEM_ACIDIC_PKA>
13.97

> <JCHEM_BASIC_PKA>
4.42

> <JCHEM_PHYSIOLOGICAL_CHARGE>
0

> <ALOGPS_LOGP>
3.73

> <JCHEM_LOGP>
4.25

> <ALOGPS_LOGS>
-4.6

> <JCHEM_POLARIZABILITY>
93.44

> <JCHEM_POLAR_SURFACE_AREA>
230.15

> <JCHEM_REFRACTIVITY>
244.04

> <JCHEM_ROTATABLE_BOND_COUNT>
15

> <ALOGPS_SOLUBILITY>
2.13e-02 g/l __ 

$$$$
