
  Mrv0541 02231216482D          

 19 20  0  0  1  0            999 V2000
    2.1434   -0.4125    0.0000 N   0  0  0  0  0  0  0  0  0  0  0  0
    2.1434   -1.2375    0.0000 C   0  0  0  0  0  0  0  0  0  0  0  0
    2.8579   -1.6500    0.0000 C   0  0  0  0  0  0  0  0  0  0  0  0
    2.8579   -2.4750    0.0000 C   0  0  0  0  0  0  0  0  0  0  0  0
    2.1434   -2.8875    0.0000 C   0  0  0  0  0  0  0  0  0  0  0  0
    2.1434   -3.7125    0.0000 O   0  0  0  0  0  0  0  0  0  0  0  0
    1.4289   -4.1250    0.0000 C   0  0  2  0  0  0  0  0  0  0  0  0
    1.4289   -4.9500    0.0000 O   0  0  0  0  0  0  0  0  0  0  0  0
    0.7145   -5.3625    0.0000 C   0  0  2  0  0  0  0  0  0  0  0  0
    0.7145   -6.1875    0.0000 C   0  0  0  0  0  0  0  0  0  0  0  0
    1.4289   -6.6000    0.0000 O   0  0  0  0  0  0  0  0  0  0  0  0
    0.0000   -4.9500    0.0000 C   0  0  1  0  0  0  0  0  0  0  0  0
   -0.7145   -5.3625    0.0000 O   0  0  0  0  0  0  0  0  0  0  0  0
    0.0000   -4.1250    0.0000 C   0  0  2  0  0  0  0  0  0  0  0  0
   -0.7145   -3.7125    0.0000 O   0  0  0  0  0  0  0  0  0  0  0  0
    0.7145   -3.7125    0.0000 C   0  0  1  0  0  0  0  0  0  0  0  0
    0.7145   -2.8875    0.0000 O   0  0  0  0  0  0  0  0  0  0  0  0
    1.4289   -2.4750    0.0000 C   0  0  0  0  0  0  0  0  0  0  0  0
    1.4289   -1.6500    0.0000 C   0  0  0  0  0  0  0  0  0  0  0  0
  1  2  1  0  0  0  0
  2  3  2  0  0  0  0
  3  4  1  0  0  0  0
  4  5  2  0  0  0  0
  5  6  1  0  0  0  0
  7  6  1  6  0  0  0
  7  8  1  0  0  0  0
  8  9  1  0  0  0  0
  9 10  1  6  0  0  0
 10 11  1  0  0  0  0
  9 12  1  0  0  0  0
 12 13  1  1  0  0  0
 12 14  1  0  0  0  0
 14 15  1  6  0  0  0
 14 16  1  0  0  0  0
  7 16  1  0  0  0  0
 16 17  1  1  0  0  0
  5 18  1  0  0  0  0
 18 19  2  0  0  0  0
  2 19  1  0  0  0  0
M  END
> <DRUGBANK_ID>
DB03242

> <DRUG_GROUPS>
experimental

> <GENERIC_NAME>
P-Aminophenyl-Alpha-D-Galactopyranoside

> <CHEMICAL_FORMULA>
C12H17NO6

> <MOLECULAR_WEIGHT>
271.2665

> <EXACT_MASS>
271.105587281

> <IUPAC_NAME>
(2S,3R,4S,5S,6R)-2-(4-aminophenoxy)-6-(hydroxymethyl)oxane-3,4,5-triol

> <IUPAC_TRADITIONAL_NAME>
(2S,3R,4S,5S,6R)-2-(4-aminophenoxy)-6-(hydroxymethyl)oxane-3,4,5-triol

> <INCHI_IDENTIFIER>
InChI=1S/C12H17NO6/c13-6-1-3-7(4-2-6)18-12-11(17)10(16)9(15)8(5-14)19-12/h1-4,8-12,14-17H,5,13H2/t8-,9-,10+,11-,12-/m1/s1

> <INCHI_KEY>
InChIKey=MIAKOEWBCMPCQR-RMPHRYRLSA-N

> <SMILES>
NC1=CC=C(O[C@@H]2O[C@H](CO)[C@@H](O)[C@H](O)[C@H]2O)C=C1

> <JCHEM_ACCEPTOR_COUNT>
7

> <JCHEM_DONOR_COUNT>
5

> <JCHEM_ACIDIC_PKA>
12.2

> <JCHEM_BASIC_PKA>
4.74

> <JCHEM_PHYSIOLOGICAL_CHARGE>
0

> <ALOGPS_LOGP>
-1.2

> <JCHEM_LOGP>
-1.4

> <ALOGPS_LOGS>
-0.92

> <JCHEM_POLARIZABILITY>
26.49

> <JCHEM_POLAR_SURFACE_AREA>
125.4

> <JCHEM_REFRACTIVITY>
64.88

> <JCHEM_ROTATABLE_BOND_COUNT>
3

> <ALOGPS_SOLUBILITY>
3.29e+01 g/l __ 

$$$$
