
  Mrv0541 02231217052D          

 16 16  0  0  1  0            999 V2000
    2.8579    3.3000    0.0000 C   0  0  0  0  0  0  0  0  0  0  0  0
    2.8579    2.4750    0.0000 O   0  0  0  0  0  0  0  0  0  0  0  0
    2.1434    2.0625    0.0000 C   0  0  0  0  0  0  0  0  0  0  0  0
    1.4289    2.4750    0.0000 O   0  0  0  0  0  0  0  0  0  0  0  0
    2.1434    1.2375    0.0000 N   0  0  0  0  0  0  0  0  0  0  0  0
    1.4289    0.8250    0.0000 C   0  0  1  0  0  0  0  0  0  0  0  0
    1.4289    0.0000    0.0000 O   0  0  0  0  0  0  0  0  0  0  0  0
    0.7145   -0.4125    0.0000 C   0  0  1  0  0  0  0  0  0  0  0  0
    0.7145   -1.2375    0.0000 C   0  0  0  0  0  0  0  0  0  0  0  0
    1.4289   -1.6500    0.0000 O   0  0  0  0  0  0  0  0  0  0  0  0
    0.0000    0.0000    0.0000 C   0  0  2  0  0  0  0  0  0  0  0  0
   -0.7145   -0.4125    0.0000 O   0  0  0  0  0  0  0  0  0  0  0  0
    0.0000    0.8250    0.0000 C   0  0  1  0  0  0  0  0  0  0  0  0
   -0.7145    1.2375    0.0000 O   0  0  0  0  0  0  0  0  0  0  0  0
    0.7145    1.2375    0.0000 C   0  0  2  0  0  0  0  0  0  0  0  0
    0.7145    2.0625    0.0000 O   0  0  0  0  0  0  0  0  0  0  0  0
  1  2  1  0  0  0  0
  2  3  1  0  0  0  0
  3  4  2  0  0  0  0
  3  5  1  0  0  0  0
  6  5  1  1  0  0  0
  6  7  1  0  0  0  0
  7  8  1  0  0  0  0
  8  9  1  1  0  0  0
  9 10  1  0  0  0  0
  8 11  1  0  0  0  0
 11 12  1  6  0  0  0
 11 13  1  0  0  0  0
 13 14  1  1  0  0  0
 13 15  1  0  0  0  0
  6 15  1  0  0  0  0
 15 16  1  6  0  0  0
M  END
> <DRUGBANK_ID>
DB03657

> <DRUG_GROUPS>
experimental

> <GENERIC_NAME>
1-Deoxy-1-Methoxycarbamido-Beta-D-Glucopyranose

> <CHEMICAL_FORMULA>
C8H15NO7

> <MOLECULAR_WEIGHT>
237.2072

> <EXACT_MASS>
237.084851839

> <IUPAC_NAME>
methyl N-[(2S,3S,4R,5R,6S)-3,4,5-trihydroxy-6-(hydroxymethyl)oxan-2-yl]carbamate

> <IUPAC_TRADITIONAL_NAME>
methyl N-[(2S,3S,4R,5R,6S)-3,4,5-trihydroxy-6-(hydroxymethyl)oxan-2-yl]carbamate

> <INCHI_IDENTIFIER>
InChI=1S/C8H15NO7/c1-15-8(14)9-7-6(13)5(12)4(11)3(2-10)16-7/h3-7,10-13H,2H2,1H3,(H,9,14)/t3-,4-,5+,6-,7-/m0/s1

> <INCHI_KEY>
InChIKey=IZZJOGWXTFEDLL-ZYNSJIGGSA-N

> <SMILES>
COC(=O)N[C@H]1O[C@@H](CO)[C@H](O)[C@@H](O)[C@@H]1O

> <JCHEM_ACCEPTOR_COUNT>
6

> <JCHEM_DONOR_COUNT>
5

> <JCHEM_ACIDIC_PKA>
12.22

> <JCHEM_BASIC_PKA>
-3

> <JCHEM_PHYSIOLOGICAL_CHARGE>
0

> <ALOGPS_LOGP>
-2.4

> <JCHEM_LOGP>
-2.6

> <ALOGPS_LOGS>
0.1

> <JCHEM_POLARIZABILITY>
21.95

> <JCHEM_POLAR_SURFACE_AREA>
128.48

> <JCHEM_REFRACTIVITY>
48.65

> <JCHEM_ROTATABLE_BOND_COUNT>
3

> <ALOGPS_SOLUBILITY>
2.99e+02 g/l __ 

$$$$
