
  Mrv0541 02231216542D          

 24 24  0  0  1  0            999 V2000
    2.1434    1.2375    0.0000 O   0  0  0  0  0  0  0  0  0  0  0  0
    1.4289    0.8250    0.0000 C   0  0  2  0  0  0  0  0  0  0  0  0
    1.4289    0.0000    0.0000 C   0  0  1  0  0  0  0  0  0  0  0  0
    2.1434   -0.4125    0.0000 O   0  0  0  0  0  0  0  0  0  0  0  0
    0.7145   -0.4125    0.0000 C   0  0  2  0  0  0  0  0  0  0  0  0
    0.7145   -1.2375    0.0000 O   0  0  0  0  0  0  0  0  0  0  0  0
    0.0000   -1.6500    0.0000 P   0  0  0  0  0  0  0  0  0  0  0  0
   -0.7145   -2.0625    0.0000 O   0  0  0  0  0  0  0  0  0  0  0  0
    0.4125   -2.3645    0.0000 O   0  0  0  0  0  0  0  0  0  0  0  0
   -0.4125   -0.9355    0.0000 O   0  0  0  0  0  0  0  0  0  0  0  0
    0.0000    0.0000    0.0000 C   0  0  2  0  0  0  0  0  0  0  0  0
   -0.7145   -0.4125    0.0000 O   0  0  0  0  0  0  0  0  0  0  0  0
   -1.4289    0.0000    0.0000 P   0  0  0  0  0  0  0  0  0  0  0  0
   -1.0164    0.7145    0.0000 O   0  0  0  0  0  0  0  0  0  0  0  0
   -1.8414   -0.7145    0.0000 O   0  0  0  0  0  0  0  0  0  0  0  0
   -2.1434    0.4125    0.0000 O   0  0  0  0  0  0  0  0  0  0  0  0
    0.0000    0.8250    0.0000 C   0  0  2  0  0  0  0  0  0  0  0  0
   -0.7145    1.2375    0.0000 O   0  0  0  0  0  0  0  0  0  0  0  0
    0.7145    1.2375    0.0000 C   0  0  1  0  0  0  0  0  0  0  0  0
    0.7145    2.0625    0.0000 O   0  0  0  0  0  0  0  0  0  0  0  0
    0.0000    2.4750    0.0000 P   0  0  0  0  0  0  0  0  0  0  0  0
   -0.7145    2.8875    0.0000 O   0  0  0  0  0  0  0  0  0  0  0  0
    0.4125    3.1895    0.0000 O   0  0  0  0  0  0  0  0  0  0  0  0
   -0.4125    1.7605    0.0000 O   0  0  0  0  0  0  0  0  0  0  0  0
  2  1  1  6  0  0  0
  2  3  1  0  0  0  0
  3  4  1  1  0  0  0
  3  5  1  0  0  0  0
  5  6  1  6  0  0  0
  6  7  1  0  0  0  0
  7  8  1  0  0  0  0
  7  9  1  0  0  0  0
  7 10  2  0  0  0  0
  5 11  1  0  0  0  0
 11 12  1  6  0  0  0
 12 13  1  0  0  0  0
 13 14  1  0  0  0  0
 13 15  1  0  0  0  0
 13 16  2  0  0  0  0
 11 17  1  0  0  0  0
 17 18  1  6  0  0  0
 17 19  1  0  0  0  0
  2 19  1  0  0  0  0
 19 20  1  1  0  0  0
 20 21  1  0  0  0  0
 21 22  1  0  0  0  0
 21 23  1  0  0  0  0
 21 24  2  0  0  0  0
M  END
> <DRUGBANK_ID>
DB03401

> <DRUG_GROUPS>
experimental

> <GENERIC_NAME>
D-Myo-Inositol-1,4,5-Triphosphate

> <CHEMICAL_FORMULA>
C6H15O15P3

> <MOLECULAR_WEIGHT>
420.0956

> <EXACT_MASS>
419.962379346

> <IUPAC_NAME>
{[(1S,2R,3R,4S,5R,6R)-2,3,5-trihydroxy-4,6-bis(phosphonooxy)cyclohexyl]oxy}phosphonic acid

> <IUPAC_TRADITIONAL_NAME>
[(1S,2R,3R,4S,5R,6R)-2,3,5-trihydroxy-4,6-bis(phosphonooxy)cyclohexyl]oxyphosphonic acid

> <INCHI_IDENTIFIER>
InChI=1S/C6H15O15P3/c7-1-2(8)5(20-23(13,14)15)6(21-24(16,17)18)3(9)4(1)19-22(10,11)12/h1-9H,(H2,10,11,12)(H2,13,14,15)(H2,16,17,18)/t1-,2-,3-,4+,5+,6-/m1/s1

> <INCHI_KEY>
InChIKey=MMWCIQZXVOZEGG-WZWPATEWSA-N

> <SMILES>
O[C@@H]1[C@@H](O)[C@H](OP(O)(O)=O)[C@H](OP(O)(O)=O)[C@H](O)[C@H]1OP(O)(O)=O

> <JCHEM_ACCEPTOR_COUNT>
12

> <JCHEM_DONOR_COUNT>
9

> <JCHEM_ACIDIC_PKA>
0.54

> <JCHEM_BASIC_PKA>
-3.7

> <JCHEM_PHYSIOLOGICAL_CHARGE>
-6

> <ALOGPS_LOGP>
-0.86

> <JCHEM_LOGP>
-4.2

> <ALOGPS_LOGS>
-1.4

> <JCHEM_POLARIZABILITY>
29.6

> <JCHEM_POLAR_SURFACE_AREA>
260.97

> <JCHEM_REFRACTIVITY>
68.39

> <JCHEM_ROTATABLE_BOND_COUNT>
6

> <ALOGPS_SOLUBILITY>
1.48e+01 g/l __ 

$$$$
