
  Mrv0541 02231216422D          

  9  9  0  0  0  0            999 V2000
    0.0000    2.4750    0.0000 N   0  0  0  0  0  0  0  0  0  0  0  0
    0.7145    2.0625    0.0000 C   0  0  0  0  0  0  0  0  0  0  0  0
    1.4289    2.4750    0.0000 N   0  3  0  0  0  0  0  0  0  0  0  0
    0.7145    1.2375    0.0000 C   0  0  0  0  0  0  0  0  0  0  0  0
    1.4289    0.8250    0.0000 C   0  0  0  0  0  0  0  0  0  0  0  0
    1.4289    0.0000    0.0000 C   0  0  0  0  0  0  0  0  0  0  0  0
    0.7145   -0.4125    0.0000 C   0  0  0  0  0  0  0  0  0  0  0  0
    0.0000    0.0000    0.0000 C   0  0  0  0  0  0  0  0  0  0  0  0
    0.0000    0.8250    0.0000 C   0  0  0  0  0  0  0  0  0  0  0  0
  1  2  1  0  0  0  0
  2  3  2  0  0  0  0
  2  4  1  0  0  0  0
  4  5  2  0  0  0  0
  5  6  1  0  0  0  0
  6  7  2  0  0  0  0
  7  8  1  0  0  0  0
  8  9  2  0  0  0  0
  4  9  1  0  0  0  0
M  END
> <DRUGBANK_ID>
DB03127

> <DRUG_GROUPS>
experimental

> <GENERIC_NAME>
Benzamidine

> <CHEMICAL_FORMULA>
C7H9N2

> <MOLECULAR_WEIGHT>
121.1598

> <EXACT_MASS>
121.076573298

> <IUPAC_NAME>
[amino(phenyl)methylidene]azanium

> <IUPAC_TRADITIONAL_NAME>
benzamidine

> <INCHI_IDENTIFIER>
InChI=1S/C7H8N2/c8-7(9)6-4-2-1-3-5-6/h1-5H,(H3,8,9)/p+1

> <INCHI_KEY>
InChIKey=PXXJHWLDUBFPOL-UHFFFAOYSA-O

> <SMILES>
NC(=[NH2+])C1=CC=CC=C1

> <JCHEM_ACCEPTOR_COUNT>
1

> <JCHEM_DONOR_COUNT>
2

> <JCHEM_BASIC_PKA>
11.53

> <JCHEM_PHYSIOLOGICAL_CHARGE>
1

> <ALOGPS_LOGP>
-0.8

> <JCHEM_LOGP>
0.89

> <ALOGPS_LOGS>
-1.6

> <JCHEM_POLARIZABILITY>
13.25

> <JCHEM_POLAR_SURFACE_AREA>
51.61

> <JCHEM_REFRACTIVITY>
48.53

> <JCHEM_ROTATABLE_BOND_COUNT>
1

> <ALOGPS_SOLUBILITY>
3.57e+00 g/l __ 

$$$$
