
  Mrv0541 02231217172D          

 12 11  0  0  1  0            999 V2000
    3.9039    0.6039    0.0000 O   0  0  0  0  0  0  0  0  0  0  0  0
    3.9039    1.4289    0.0000 C   0  0  1  0  0  0  0  0  0  0  0  0
    3.1895    1.8414    0.0000 C   0  0  0  0  0  0  0  0  0  0  0  0
    2.4750    1.4289    0.0000 O   0  0  0  0  0  0  0  0  0  0  0  0
    1.7605    1.8414    0.0000 P   0  0  0  0  0  0  0  0  0  0  0  0
    1.0461    2.2539    0.0000 O   0  0  0  0  0  0  0  0  0  0  0  0
    1.3480    1.1270    0.0000 O   0  0  0  0  0  0  0  0  0  0  0  0
    2.1730    2.5559    0.0000 O   0  0  0  0  0  0  0  0  0  0  0  0
    4.6184    1.8414    0.0000 C   0  0  1  0  0  0  0  0  0  0  0  0
    4.6184    2.6664    0.0000 O   0  0  0  0  0  0  0  0  0  0  0  0
    5.3329    1.4289    0.0000 C   0  0  0  0  0  0  0  0  0  0  0  0
    6.0474    1.8414    0.0000 O   0  0  0  0  0  0  0  0  0  0  0  0
  2  1  1  1  0  0  0
  2  3  1  0  0  0  0
  3  4  1  0  0  0  0
  4  5  1  0  0  0  0
  5  6  1  0  0  0  0
  5  7  1  0  0  0  0
  5  8  2  0  0  0  0
  2  9  1  0  0  0  0
  9 10  1  1  0  0  0
  9 11  1  0  0  0  0
 11 12  2  0  0  0  0
M  END
> <DRUGBANK_ID>
DB03937

> <DRUG_GROUPS>
experimental

> <GENERIC_NAME>
Erythose-4-Phosphate

> <CHEMICAL_FORMULA>
C4H9O7P

> <MOLECULAR_WEIGHT>
200.0838

> <EXACT_MASS>
200.008589154

> <IUPAC_NAME>
[(2S,3R)-2,3-dihydroxy-4-oxobutoxy]phosphonic acid

> <IUPAC_TRADITIONAL_NAME>
(2S,3R)-2,3-dihydroxy-4-oxobutoxyphosphonic acid

> <INCHI_IDENTIFIER>
InChI=1S/C4H9O7P/c5-1-3(6)4(7)2-11-12(8,9)10/h1,3-4,6-7H,2H2,(H2,8,9,10)/t3-,4-/m0/s1

> <INCHI_KEY>
InChIKey=NGHMDNPXVRFFGS-IMJSIDKUSA-N

> <SMILES>
O[C@@H](COP(O)(O)=O)[C@@H](O)C=O

> <JCHEM_ACCEPTOR_COUNT>
6

> <JCHEM_DONOR_COUNT>
4

> <JCHEM_ACIDIC_PKA>
1.48

> <JCHEM_BASIC_PKA>
-3.6

> <JCHEM_PHYSIOLOGICAL_CHARGE>
-2

> <ALOGPS_LOGP>
-1.9

> <JCHEM_LOGP>
-2.4

> <ALOGPS_LOGS>
-0.93

> <JCHEM_POLARIZABILITY>
15.22

> <JCHEM_POLAR_SURFACE_AREA>
124.29

> <JCHEM_REFRACTIVITY>
36.29

> <JCHEM_ROTATABLE_BOND_COUNT>
5

> <ALOGPS_SOLUBILITY>
2.37e+01 g/l __ 

$$$$
