
  Mrv0541 02231216582D          

 54 56  0  0  1  0            999 V2000
    4.9425   -5.0859    0.0000 N   0  0  0  0  0  0  0  0  0  0  0  0
    5.4342   -5.7483    0.0000 C   0  0  0  0  0  0  0  0  0  0  0  0
    6.2538   -5.6537    0.0000 O   0  0  0  0  0  0  0  0  0  0  0  0
    5.1064   -6.5054    0.0000 C   0  0  1  0  0  0  0  0  0  0  0  0
    4.2868   -6.6000    0.0000 C   0  0  0  0  0  0  0  0  0  0  0  0
    3.7951   -5.9376    0.0000 C   0  0  0  0  0  0  0  0  0  0  0  0
    2.9755   -6.0322    0.0000 C   0  0  0  0  0  0  0  0  0  0  0  0
    2.4838   -5.3698    0.0000 C   0  0  0  0  0  0  0  0  0  0  0  0
    2.8116   -4.6127    0.0000 C   0  0  0  0  0  0  0  0  0  0  0  0
    3.6312   -4.5181    0.0000 C   0  0  0  0  0  0  0  0  0  0  0  0
    4.1229   -5.1805    0.0000 C   0  0  0  0  0  0  0  0  0  0  0  0
    2.3199   -3.9502    0.0000 C   0  0  0  0  0  0  0  0  0  0  0  0
    1.6575   -4.4420    0.0000 F   0  0  0  0  0  0  0  0  0  0  0  0
    2.9823   -3.4585    0.0000 F   0  0  0  0  0  0  0  0  0  0  0  0
    1.8282   -3.2878    0.0000 P   0  0  0  0  0  0  0  0  0  0  0  0
    1.3364   -2.6254    0.0000 O   0  0  0  0  0  0  0  0  0  0  0  0
    1.1657   -3.7795    0.0000 O   0  0  0  0  0  0  0  0  0  0  0  0
    2.4906   -2.7961    0.0000 O   0  0  0  0  0  0  0  0  0  0  0  0
    5.5981   -7.1678    0.0000 N   0  0  0  0  0  0  0  0  0  0  0  0
    6.4177   -7.0732    0.0000 C   0  0  0  0  0  0  0  0  0  0  0  0
    6.7455   -6.3161    0.0000 O   0  0  0  0  0  0  0  0  0  0  0  0
    6.9094   -7.7356    0.0000 C   0  0  1  0  0  0  0  0  0  0  0  0
    6.5816   -8.4927    0.0000 C   0  0  0  0  0  0  0  0  0  0  0  0
    5.7620   -8.5873    0.0000 C   0  0  0  0  0  0  0  0  0  0  0  0
    5.4342   -9.3444    0.0000 C   0  0  0  0  0  0  0  0  0  0  0  0
    4.6146   -9.4390    0.0000 C   0  0  0  0  0  0  0  0  0  0  0  0
    4.1229   -8.7766    0.0000 C   0  0  0  0  0  0  0  0  0  0  0  0
    4.4507   -8.0195    0.0000 C   0  0  0  0  0  0  0  0  0  0  0  0
    5.2703   -7.9249    0.0000 C   0  0  0  0  0  0  0  0  0  0  0  0
    3.3034   -8.8712    0.0000 C   0  0  0  0  0  0  0  0  0  0  0  0
    3.2087   -8.0517    0.0000 F   0  0  0  0  0  0  0  0  0  0  0  0
    3.3980   -9.6908    0.0000 F   0  0  0  0  0  0  0  0  0  0  0  0
    2.4838   -8.9658    0.0000 P   0  0  0  0  0  0  0  0  0  0  0  0
    2.3892   -8.1463    0.0000 O   0  0  0  0  0  0  0  0  0  0  0  0
    2.5784   -9.7854    0.0000 O   0  0  0  0  0  0  0  0  0  0  0  0
    1.6643   -9.0605    0.0000 O   0  0  0  0  0  0  0  0  0  0  0  0
    7.7290   -7.6410    0.0000 N   0  0  0  0  0  0  0  0  0  0  0  0
    8.2207   -8.3034    0.0000 C   0  0  0  0  0  0  0  0  0  0  0  0
    7.8929   -9.0605    0.0000 O   0  0  0  0  0  0  0  0  0  0  0  0
    9.0402   -8.2088    0.0000 C   0  0  1  0  0  0  0  0  0  0  0  0
    9.3681   -7.4517    0.0000 C   0  0  0  0  0  0  0  0  0  0  0  0
   10.1876   -7.3571    0.0000 C   0  0  0  0  0  0  0  0  0  0  0  0
   10.5154   -6.6000    0.0000 C   0  0  0  0  0  0  0  0  0  0  0  0
   10.0237   -5.9376    0.0000 O   0  0  0  0  0  0  0  0  0  0  0  0
   11.3350   -6.5054    0.0000 O   0  0  0  0  0  0  0  0  0  0  0  0
    9.5320   -8.8712    0.0000 N   0  0  0  0  0  0  0  0  0  0  0  0
   10.3515   -8.7766    0.0000 C   0  0  0  0  0  0  0  0  0  0  0  0
   10.6794   -8.0195    0.0000 O   0  0  0  0  0  0  0  0  0  0  0  0
   10.8433   -9.4390    0.0000 C   0  0  0  0  0  0  0  0  0  0  0  0
   11.6628   -9.3444    0.0000 C   0  0  0  0  0  0  0  0  0  0  0  0
   12.1545  -10.0068    0.0000 C   0  0  0  0  0  0  0  0  0  0  0  0
   11.8267  -10.7639    0.0000 C   0  0  0  0  0  0  0  0  0  0  0  0
   11.0072  -10.8585    0.0000 C   0  0  0  0  0  0  0  0  0  0  0  0
   10.5154  -10.1961    0.0000 C   0  0  0  0  0  0  0  0  0  0  0  0
  1  2  1  0  0  0  0
  2  3  2  0  0  0  0
  2  4  1  0  0  0  0
  4  5  1  0  0  0  0
  5  6  1  0  0  0  0
  6  7  2  0  0  0  0
  7  8  1  0  0  0  0
  8  9  2  0  0  0  0
  9 10  1  0  0  0  0
 10 11  2  0  0  0  0
  6 11  1  0  0  0  0
  9 12  1  0  0  0  0
 12 13  1  0  0  0  0
 12 14  1  0  0  0  0
 12 15  1  0  0  0  0
 15 16  1  0  0  0  0
 15 17  1  0  0  0  0
 15 18  2  0  0  0  0
  4 19  1  6  0  0  0
 19 20  1  0  0  0  0
 20 21  2  0  0  0  0
 20 22  1  0  0  0  0
 22 23  1  0  0  0  0
 23 24  1  0  0  0  0
 24 25  2  0  0  0  0
 25 26  1  0  0  0  0
 26 27  2  0  0  0  0
 27 28  1  0  0  0  0
 28 29  2  0  0  0  0
 24 29  1  0  0  0  0
 27 30  1  0  0  0  0
 30 31  1  0  0  0  0
 30 32  1  0  0  0  0
 30 33  1  0  0  0  0
 33 34  1  0  0  0  0
 33 35  1  0  0  0  0
 33 36  2  0  0  0  0
 22 37  1  6  0  0  0
 37 38  1  0  0  0  0
 38 39  2  0  0  0  0
 38 40  1  0  0  0  0
 40 41  1  0  0  0  0
 41 42  1  0  0  0  0
 42 43  1  0  0  0  0
 43 44  1  0  0  0  0
 43 45  2  0  0  0  0
 40 46  1  1  0  0  0
 46 47  1  0  0  0  0
 47 48  2  0  0  0  0
 47 49  1  0  0  0  0
 49 50  2  0  0  0  0
 50 51  1  0  0  0  0
 51 52  2  0  0  0  0
 52 53  1  0  0  0  0
 53 54  2  0  0  0  0
 49 54  1  0  0  0  0
M  END
> <DRUGBANK_ID>
DB03483

> <DRUG_GROUPS>
experimental

> <GENERIC_NAME>
4-Benzoylamino-4-{1-{1-Carbamoyl-2-[4-(Difluoro-Phosphono-Methyl)-Phenyl]-Ethylcarbamoyl}-2-[4-(Difluoro-Phosphono-Methyl)-Phenyl]-Ethylcarbamoyl}-Butyric Acid

> <CHEMICAL_FORMULA>
C32H34F4N4O12P2

> <MOLECULAR_WEIGHT>
804.5731

> <EXACT_MASS>
804.158458416

> <IUPAC_NAME>
(4R)-4-{[(1R)-1-{[(1R)-1-carbamoyl-2-{4-[difluoro(phosphono)methyl]phenyl}ethyl]carbamoyl}-2-{4-[difluoro(phosphono)methyl]phenyl}ethyl]carbamoyl}-4-(phenylformamido)butanoic acid

> <IUPAC_TRADITIONAL_NAME>
(4R)-4-{[(1R)-1-{[(1R)-1-carbamoyl-2-{4-[difluoro(phosphono)methyl]phenyl}ethyl]carbamoyl}-2-{4-[difluoro(phosphono)methyl]phenyl}ethyl]carbamoyl}-4-(phenylformamido)butanoic acid

> <INCHI_IDENTIFIER>
InChI=1S/C32H34F4N4O12P2/c33-31(34,53(47,48)49)21-10-6-18(7-11-21)16-24(27(37)43)39-30(46)25(17-19-8-12-22(13-9-19)32(35,36)54(50,51)52)40-29(45)23(14-15-26(41)42)38-28(44)20-4-2-1-3-5-20/h1-13,23-25H,14-17H2,(H2,37,43)(H,38,44)(H,39,46)(H,40,45)(H,41,42)(H2,47,48,49)(H2,50,51,52)/t23-,24-,25-/m1/s1

> <INCHI_KEY>
InChIKey=UJIWNECQGQOIKP-UBFVSLLYSA-N

> <SMILES>
NC(=O)[C@@H](CC1=CC=C(C=C1)C(F)(F)P(O)(O)=O)NC(=O)[C@@H](CC1=CC=C(C=C1)C(F)(F)P(O)(O)=O)NC(=O)[C@@H](CCC(O)=O)NC(=O)C1=CC=CC=C1

> <JCHEM_ACCEPTOR_COUNT>
12

> <JCHEM_DONOR_COUNT>
9

> <JCHEM_ACIDIC_PKA>
0.19

> <JCHEM_PHYSIOLOGICAL_CHARGE>
-3

> <ALOGPS_LOGP>
1.18

> <JCHEM_LOGP>
0.83

> <ALOGPS_LOGS>
-4.5

> <JCHEM_POLARIZABILITY>
68.94

> <JCHEM_POLAR_SURFACE_AREA>
282.75

> <JCHEM_REFRACTIVITY>
180.5

> <JCHEM_ROTATABLE_BOND_COUNT>
18

> <ALOGPS_SOLUBILITY>
2.67e-02 g/l __ 

$$$$
