
  Mrv0541 02231217162D          

 53 55  0  0  1  0            999 V2000
    7.8225    1.5568    0.0000 C   0  0  0  0  0  0  0  0  0  0  0  0
    7.8753    0.7335    0.0000 C   0  0  1  0  0  0  0  0  0  0  0  0
    7.1887    0.2761    0.0000 O   0  0  0  0  0  0  0  0  0  0  0  0
    6.4493    0.6420    0.0000 P   0  0  1  0  0  0  0  0  0  0  0  0
    6.0834   -0.0974    0.0000 O   0  0  0  0  0  0  0  0  0  0  0  0
    6.8152    1.3815    0.0000 O   0  0  0  0  0  0  0  0  0  0  0  0
    5.7099    1.0080    0.0000 O   0  0  0  0  0  0  0  0  0  0  0  0
    5.0233    0.5506    0.0000 C   0  0  0  0  0  0  0  0  0  0  0  0
    4.2839    0.9165    0.0000 C   0  0  2  0  0  0  0  0  0  0  0  0
    4.2311    1.7398    0.0000 O   0  0  0  0  0  0  0  0  0  0  0  0
    3.5973    0.4591    0.0000 C   0  0  1  0  0  0  0  0  0  0  0  0
    3.6501   -0.3642    0.0000 O   0  0  0  0  0  0  0  0  0  0  0  0
    2.8579    0.8250    0.0000 C   0  0  2  0  0  0  0  0  0  0  0  0
    2.8051    1.6483    0.0000 O   0  0  0  0  0  0  0  0  0  0  0  0
    2.1713    0.3676    0.0000 C   0  0  0  0  0  0  0  0  0  0  0  0
    1.4319    0.7335    0.0000 N   0  0  0  0  0  0  0  0  0  0  0  0
    0.7453    0.2761    0.0000 C   0  0  0  0  0  0  0  0  0  0  0  0
    0.7981   -0.5472    0.0000 C   0  0  0  0  0  0  0  0  0  0  0  0
    0.1115   -1.0046    0.0000 C   0  0  0  0  0  0  0  0  0  0  0  0
    0.1643   -1.8279    0.0000 O   0  0  0  0  0  0  0  0  0  0  0  0
   -0.6279   -0.6387    0.0000 C   0  0  0  0  0  0  0  0  0  0  0  0
   -0.6807    0.1846    0.0000 C   0  0  0  0  0  0  0  0  0  0  0  0
    0.0059    0.6420    0.0000 C   0  0  0  0  0  0  0  0  0  0  0  0
   -0.0470    1.4654    0.0000 C   0  0  0  0  0  0  0  0  0  0  0  0
    0.6396    1.9227    0.0000 C   0  0  0  0  0  0  0  0  0  0  0  0
    0.5868    2.7461    0.0000 C   0  0  0  0  0  0  0  0  0  0  0  0
   -0.1526    3.1120    0.0000 O   0  0  0  0  0  0  0  0  0  0  0  0
    1.2734    3.2034    0.0000 N   0  0  0  0  0  0  0  0  0  0  0  0
    2.0128    2.8375    0.0000 C   0  0  0  0  0  0  0  0  0  0  0  0
    2.6994    3.2949    0.0000 O   0  0  0  0  0  0  0  0  0  0  0  0
    2.0657    2.0142    0.0000 N   0  0  0  0  0  0  0  0  0  0  0  0
    1.3791    1.5568    0.0000 C   0  0  0  0  0  0  0  0  0  0  0  0
    8.6147    0.3676    0.0000 C   0  0  0  0  0  0  0  0  0  0  0  0
    8.6676   -0.4557    0.0000 O   0  0  0  0  0  0  0  0  0  0  0  0
    9.3013    0.8250    0.0000 N   0  0  0  0  0  0  0  0  0  0  0  0
   10.0408    0.4591    0.0000 C   0  0  2  0  0  0  0  0  0  0  0  0
   10.7274    0.9165    0.0000 C   0  0  0  0  0  0  0  0  0  0  0  0
   11.4668    0.5506    0.0000 C   0  0  0  0  0  0  0  0  0  0  0  0
   12.1534    1.0080    0.0000 C   0  0  0  0  0  0  0  0  0  0  0  0
   12.1005    1.8313    0.0000 O   0  0  0  0  0  0  0  0  0  0  0  0
   12.8928    0.6420    0.0000 N   0  0  0  0  0  0  0  0  0  0  0  0
   13.5794    1.0994    0.0000 C   0  0  1  0  0  0  0  0  0  0  0  0
   14.3188    0.7335    0.0000 C   0  0  0  0  0  0  0  0  0  0  0  0
   15.0054    1.1909    0.0000 C   0  0  0  0  0  0  0  0  0  0  0  0
   15.7448    0.8250    0.0000 C   0  0  0  0  0  0  0  0  0  0  0  0
   16.4314    1.2824    0.0000 O   0  0  0  0  0  0  0  0  0  0  0  0
   15.7976    0.0017    0.0000 O   0  0  0  0  0  0  0  0  0  0  0  0
   13.5266    1.9227    0.0000 C   0  0  0  0  0  0  0  0  0  0  0  0
   14.2132    2.3801    0.0000 O   0  0  0  0  0  0  0  0  0  0  0  0
   12.7871    2.2887    0.0000 O   0  0  0  0  0  0  0  0  0  0  0  0
   10.0936   -0.3642    0.0000 C   0  0  0  0  0  0  0  0  0  0  0  0
   10.8330   -0.7301    0.0000 O   0  0  0  0  0  0  0  0  0  0  0  0
    9.4070   -0.8216    0.0000 O   0  0  0  0  0  0  0  0  0  0  0  0
  2  1  1  6  0  0  0
  2  3  1  0  0  0  0
  4  3  1  6  0  0  0
  4  5  1  1  0  0  0
  4  6  2  0  0  0  0
  4  7  1  0  0  0  0
  7  8  1  0  0  0  0
  8  9  1  0  0  0  0
  9 10  1  1  0  0  0
  9 11  1  0  0  0  0
 11 12  1  1  0  0  0
 11 13  1  0  0  0  0
 13 14  1  1  0  0  0
 13 15  1  0  0  0  0
 15 16  1  0  0  0  0
 16 17  1  0  0  0  0
 17 18  2  0  0  0  0
 18 19  1  0  0  0  0
 19 20  1  0  0  0  0
 19 21  2  0  0  0  0
 21 22  1  0  0  0  0
 22 23  2  0  0  0  0
 17 23  1  0  0  0  0
 23 24  1  0  0  0  0
 24 25  2  0  0  0  0
 25 26  1  0  0  0  0
 26 27  2  0  0  0  0
 26 28  1  0  0  0  0
 28 29  1  0  0  0  0
 29 30  2  0  0  0  0
 29 31  1  0  0  0  0
 31 32  2  0  0  0  0
 16 32  1  0  0  0  0
 25 32  1  0  0  0  0
  2 33  1  0  0  0  0
 33 34  2  0  0  0  0
 33 35  1  0  0  0  0
 36 35  1  6  0  0  0
 36 37  1  0  0  0  0
 37 38  1  0  0  0  0
 38 39  1  0  0  0  0
 39 40  2  0  0  0  0
 39 41  1  0  0  0  0
 42 41  1  6  0  0  0
 42 43  1  0  0  0  0
 43 44  1  0  0  0  0
 44 45  1  0  0  0  0
 45 46  1  0  0  0  0
 45 47  2  0  0  0  0
 42 48  1  0  0  0  0
 48 49  1  0  0  0  0
 48 50  2  0  0  0  0
 36 51  1  0  0  0  0
 51 52  1  0  0  0  0
 51 53  2  0  0  0  0
M  END
> <DRUGBANK_ID>
DB03913

> <DRUG_GROUPS>
experimental

> <GENERIC_NAME>
Coenzyme F420

> <CHEMICAL_FORMULA>
C29H36N5O18P

> <MOLECULAR_WEIGHT>
773.5926

> <EXACT_MASS>
773.179295885

> <IUPAC_NAME>
(2S)-2-[(4R)-4-carboxy-4-[(2R)-2-{[hydroxy({[(2S,3S,4R)-2,3,4-trihydroxy-5-{8-hydroxy-2,4-dioxo-2H,3H,4H,10H-pyrimido[4,5-b]quinolin-10-yl}pentyl]oxy})phosphoryl]oxy}propanamido]butanamido]pentanedioic acid

> <IUPAC_TRADITIONAL_NAME>
(2S)-2-[(4R)-4-carboxy-4-[(2R)-2-({hydroxy[(2S,3S,4R)-2,3,4-trihydroxy-5-{8-hydroxy-2,4-dioxo-3H-pyrimido[4,5-b]quinolin-10-yl}pentyl]oxyphosphoryl}oxy)propanamido]butanamido]pentanedioic acid

> <INCHI_IDENTIFIER>
InChI=1S/C29H36N5O18P/c1-12(25(42)31-17(28(46)47)4-6-21(38)30-16(27(44)45)5-7-22(39)40)52-53(49,50)51-11-20(37)23(41)19(36)10-34-18-9-14(35)3-2-13(18)8-15-24(34)32-29(48)33-26(15)43/h2-3,8-9,12,16-17,19-20,23,35-37,41H,4-7,10-11H2,1H3,(H,30,38)(H,31,42)(H,39,40)(H,44,45)(H,46,47)(H,49,50)(H,33,43,48)/t12-,16+,17-,19-,20+,23+/m1/s1

> <INCHI_KEY>
InChIKey=GEHSZWRGPHDXJO-ALELSXGZSA-N

> <SMILES>
C[C@@H](O[P@@](O)(=O)OC[C@H](O)[C@@H](O)[C@H](O)CN1C2=CC(O)=CC=C2C=C2C(=O)NC(=O)N=C12)C(=O)N[C@H](CCC(=O)N[C@@H](CCC(O)=O)C(O)=O)C(O)=O

> <JCHEM_ACCEPTOR_COUNT>
18

> <JCHEM_DONOR_COUNT>
11

> <JCHEM_ACIDIC_PKA>
1.78

> <JCHEM_BASIC_PKA>
-6

> <JCHEM_PHYSIOLOGICAL_CHARGE>
-4

> <ALOGPS_LOGP>
-0.97

> <JCHEM_LOGP>
-3.7

> <ALOGPS_LOGS>
-3.4

> <JCHEM_POLARIZABILITY>
70.68

> <JCHEM_POLAR_SURFACE_AREA>
368.55

> <JCHEM_REFRACTIVITY>
170.88

> <JCHEM_ROTATABLE_BOND_COUNT>
20

> <ALOGPS_SOLUBILITY>
2.89e-01 g/l __ 

$$$$
