
  Mrv0541 02231217022D          

 16 15  0  0  1  0            999 V2000
    5.1414    1.3184    0.0000 O   0  0  0  0  0  0  0  0  0  0  0  0
    5.1414    2.1434    0.0000 C   0  0  2  0  0  0  0  0  0  0  0  0
    4.4270    2.5559    0.0000 C   0  0  0  0  0  0  0  0  0  0  0  0
    3.7125    2.1434    0.0000 O   0  0  0  0  0  0  0  0  0  0  0  0
    2.9980    2.5559    0.0000 P   0  0  0  0  0  0  0  0  0  0  0  0
    2.2836    2.9684    0.0000 O   0  0  0  0  0  0  0  0  0  0  0  0
    2.5855    1.8414    0.0000 O   0  0  0  0  0  0  0  0  0  0  0  0
    3.4105    3.2704    0.0000 O   0  0  0  0  0  0  0  0  0  0  0  0
    5.8559    2.5559    0.0000 C   0  0  2  0  0  0  0  0  0  0  0  0
    5.8559    3.3809    0.0000 O   0  0  0  0  0  0  0  0  0  0  0  0
    6.5704    2.1434    0.0000 C   0  0  2  0  0  0  0  0  0  0  0  0
    6.5704    1.3184    0.0000 O   0  0  0  0  0  0  0  0  0  0  0  0
    7.2849    2.5559    0.0000 C   0  0  1  0  0  0  0  0  0  0  0  0
    7.2849    3.3809    0.0000 O   0  0  0  0  0  0  0  0  0  0  0  0
    7.9993    2.1434    0.0000 C   0  0  0  0  0  0  0  0  0  0  0  0
    8.7138    2.5559    0.0000 O   0  0  0  0  0  0  0  0  0  0  0  0
  2  1  1  6  0  0  0
  2  3  1  0  0  0  0
  3  4  1  0  0  0  0
  4  5  1  0  0  0  0
  5  6  1  0  0  0  0
  5  7  1  0  0  0  0
  5  8  2  0  0  0  0
  2  9  1  0  0  0  0
  9 10  1  6  0  0  0
  9 11  1  0  0  0  0
 11 12  1  1  0  0  0
 11 13  1  0  0  0  0
 13 14  1  1  0  0  0
 13 15  1  0  0  0  0
 15 16  2  0  0  0  0
M  END
> <DRUGBANK_ID>
DB03581

> <DRUG_GROUPS>
experimental

> <GENERIC_NAME>
Glucose-6-Phosphate

> <CHEMICAL_FORMULA>
C6H13O9P

> <MOLECULAR_WEIGHT>
260.1358

> <EXACT_MASS>
260.029718526

> <IUPAC_NAME>
{[(2R,3S,4S,5R)-2,3,4,5-tetrahydroxy-6-oxohexyl]oxy}phosphonic acid

> <IUPAC_TRADITIONAL_NAME>
[(2R,3S,4S,5R)-2,3,4,5-tetrahydroxy-6-oxohexyl]oxyphosphonic acid

> <INCHI_IDENTIFIER>
InChI=1S/C6H13O9P/c7-1-3(8)5(10)6(11)4(9)2-15-16(12,13)14/h1,3-6,8-11H,2H2,(H2,12,13,14)/t3-,4+,5+,6-/m0/s1

> <INCHI_KEY>
InChIKey=VFRROHXSMXFLSN-KCDKBNATSA-N

> <SMILES>
O[C@H](COP(O)(O)=O)[C@H](O)[C@H](O)[C@@H](O)C=O

> <JCHEM_ACCEPTOR_COUNT>
8

> <JCHEM_DONOR_COUNT>
6

> <JCHEM_ACIDIC_PKA>
1.49

> <JCHEM_BASIC_PKA>
-3.5

> <JCHEM_PHYSIOLOGICAL_CHARGE>
-2

> <ALOGPS_LOGP>
-1.9

> <JCHEM_LOGP>
-3.7

> <ALOGPS_LOGS>
-1.1

> <JCHEM_POLARIZABILITY>
20.66

> <JCHEM_POLAR_SURFACE_AREA>
164.75

> <JCHEM_REFRACTIVITY>
48.22

> <JCHEM_ROTATABLE_BOND_COUNT>
7

> <ALOGPS_SOLUBILITY>
2.17e+01 g/l __ 

$$$$
