
  Mrv0541 02231217052D          

 27 28  0  0  1  0            999 V2000
   -2.8579   -4.1250    0.0000 C   0  0  0  0  0  0  0  0  0  0  0  0
   -2.8579   -3.3000    0.0000 O   0  0  0  0  0  0  0  0  0  0  0  0
   -2.1434   -2.8875    0.0000 C   0  0  0  0  0  0  0  0  0  0  0  0
   -1.4289   -3.3000    0.0000 O   0  0  0  0  0  0  0  0  0  0  0  0
   -2.1434   -2.0625    0.0000 C   0  0  1  0  0  0  0  0  0  0  0  0
   -2.8579   -1.6500    0.0000 C   0  0  0  0  0  0  0  0  0  0  0  0
   -2.8579   -0.8250    0.0000 C   0  0  0  0  0  0  0  0  0  0  0  0
   -2.1434   -0.4125    0.0000 C   0  0  0  0  0  0  0  0  0  0  0  0
   -1.4289   -0.8250    0.0000 C   0  0  0  0  0  0  0  0  0  0  0  0
   -1.4289   -1.6500    0.0000 C   0  0  2  0  0  0  0  0  0  0  0  0
   -0.7145   -2.0625    0.0000 S   0  0  0  0  0  0  0  0  0  0  0  0
   -1.1270   -2.7770    0.0000 O   0  0  0  0  0  0  0  0  0  0  0  0
   -0.3020   -1.3480    0.0000 O   0  0  0  0  0  0  0  0  0  0  0  0
    0.0000   -2.4750    0.0000 N   0  0  0  0  0  0  0  0  0  0  0  0
    0.7145   -2.0625    0.0000 C   0  0  0  0  0  0  0  0  0  0  0  0
    0.7145   -1.2375    0.0000 O   0  0  0  0  0  0  0  0  0  0  0  0
    1.4289   -2.4750    0.0000 N   0  0  0  0  0  0  0  0  0  0  0  0
    1.4289   -3.3000    0.0000 C   0  0  0  0  0  0  0  0  0  0  0  0
    2.1434   -2.0625    0.0000 C   0  0  0  0  0  0  0  0  0  0  0  0
    2.1434   -1.2375    0.0000 N   0  0  0  0  0  0  0  0  0  0  0  0
    2.8579   -0.8250    0.0000 C   0  0  0  0  0  0  0  0  0  0  0  0
    2.8579    0.0000    0.0000 C   0  0  0  0  0  0  0  0  0  0  0  0
    3.5724   -1.2375    0.0000 N   0  0  0  0  0  0  0  0  0  0  0  0
    3.5724   -2.0625    0.0000 C   0  0  0  0  0  0  0  0  0  0  0  0
    4.2868   -2.4750    0.0000 O   0  0  0  0  0  0  0  0  0  0  0  0
    5.0013   -2.0625    0.0000 C   0  0  0  0  0  0  0  0  0  0  0  0
    2.8579   -2.4750    0.0000 N   0  0  0  0  0  0  0  0  0  0  0  0
  1  2  1  0  0  0  0
  2  3  1  0  0  0  0
  3  4  2  0  0  0  0
  5  3  1  1  0  0  0
  5  6  1  0  0  0  0
  6  7  1  0  0  0  0
  7  8  1  0  0  0  0
  8  9  1  0  0  0  0
  9 10  1  0  0  0  0
  5 10  1  0  0  0  0
 10 11  1  6  0  0  0
 11 12  2  0  0  0  0
 11 13  2  0  0  0  0
 11 14  1  0  0  0  0
 14 15  1  0  0  0  0
 15 16  2  0  0  0  0
 15 17  1  0  0  0  0
 17 18  1  0  0  0  0
 17 19  1  0  0  0  0
 19 20  2  0  0  0  0
 20 21  1  0  0  0  0
 21 22  1  0  0  0  0
 21 23  2  0  0  0  0
 23 24  1  0  0  0  0
 24 25  1  0  0  0  0
 25 26  1  0  0  0  0
 24 27  2  0  0  0  0
 19 27  1  0  0  0  0
M  END
> <DRUGBANK_ID>
DB03656

> <DRUG_GROUPS>
experimental

> <GENERIC_NAME>
Tribenuron Methyl

> <CHEMICAL_FORMULA>
C15H23N5O6S

> <MOLECULAR_WEIGHT>
401.438

> <EXACT_MASS>
401.136904183

> <IUPAC_NAME>
methyl (1R,2S)-2-({[(4-methoxy-6-methyl-1,3,5-triazin-2-yl)(methyl)carbamoyl]amino}sulfonyl)cyclohexane-1-carboxylate

> <IUPAC_TRADITIONAL_NAME>
methyl (1R,2S)-2-{[(4-methoxy-6-methyl-1,3,5-triazin-2-yl)(methyl)carbamoyl]aminosulfonyl}cyclohexane-1-carboxylate

> <INCHI_IDENTIFIER>
InChI=1S/C15H23N5O6S/c1-9-16-13(18-14(17-9)26-4)20(2)15(22)19-27(23,24)11-8-6-5-7-10(11)12(21)25-3/h10-11H,5-8H2,1-4H3,(H,19,22)/t10-,11-/m0/s1

> <INCHI_KEY>
InChIKey=YMXOXAPKZDWXLY-QWRGUYRKSA-N

> <SMILES>
COC(=O)[C@H]1CCCC[C@@H]1S(=O)(=O)NC(=O)N(C)C1=NC(C)=NC(OC)=N1

> <JCHEM_ACCEPTOR_COUNT>
8

> <JCHEM_DONOR_COUNT>
1

> <JCHEM_ACIDIC_PKA>
3.24

> <JCHEM_BASIC_PKA>
-1

> <JCHEM_PHYSIOLOGICAL_CHARGE>
-1

> <ALOGPS_LOGP>
0.67

> <JCHEM_LOGP>
1.32

> <ALOGPS_LOGS>
-2.9

> <JCHEM_POLARIZABILITY>
39.79

> <JCHEM_POLAR_SURFACE_AREA>
140.68

> <JCHEM_REFRACTIVITY>
95.44

> <JCHEM_ROTATABLE_BOND_COUNT>
5

> <ALOGPS_SOLUBILITY>
5.40e-01 g/l __ 

$$$$
