
  Mrv0541 02231217022D          

 25 27  0  0  1  0            999 V2000
   -0.3984    0.7541    0.0000 C   0  0  0  0  0  0  0  0  0  0  0  0
   -0.1435   -0.0305    0.0000 N   0  3  0  0  0  0  0  0  0  0  0  0
   -0.6284   -0.6979    0.0000 C   0  0  0  0  0  0  0  0  0  0  0  0
   -0.1435   -1.3654    0.0000 N   0  0  0  0  0  0  0  0  0  0  0  0
   -0.3984   -2.1500    0.0000 C   0  0  2  0  0  0  0  0  0  0  0  0
    0.0865   -2.8174    0.0000 O   0  0  0  0  0  0  0  0  0  0  0  0
   -0.3984   -3.4849    0.0000 C   0  0  1  0  0  0  0  0  0  0  0  0
   -0.1435   -4.2695    0.0000 C   0  0  0  0  0  0  0  0  0  0  0  0
   -0.6955   -4.8826    0.0000 O   0  0  0  0  0  0  0  0  0  0  0  0
   -0.4406   -5.6672    0.0000 P   0  0  0  0  0  0  0  0  0  0  0  0
   -0.1857   -6.4518    0.0000 O   0  0  0  0  0  0  0  0  0  0  0  0
    0.3440   -5.4123    0.0000 O   0  0  0  0  0  0  0  0  0  0  0  0
   -1.2252   -5.9222    0.0000 O   0  0  0  0  0  0  0  0  0  0  0  0
   -1.1831   -3.2299    0.0000 C   0  0  2  0  0  0  0  0  0  0  0  0
   -1.8505   -3.7149    0.0000 O   0  0  0  0  0  0  0  0  0  0  0  0
   -1.1831   -2.4049    0.0000 C   0  0  1  0  0  0  0  0  0  0  0  0
   -1.8505   -1.9200    0.0000 O   0  0  0  0  0  0  0  0  0  0  0  0
    0.6411   -1.1104    0.0000 C   0  0  0  0  0  0  0  0  0  0  0  0
    0.6411   -0.2854    0.0000 C   0  0  0  0  0  0  0  0  0  0  0  0
    1.3556    0.1271    0.0000 C   0  0  0  0  0  0  0  0  0  0  0  0
    1.3556    0.9521    0.0000 O   0  0  0  0  0  0  0  0  0  0  0  0
    2.0701   -0.2854    0.0000 N   0  0  0  0  0  0  0  0  0  0  0  0
    2.0701   -1.1104    0.0000 C   0  0  0  0  0  0  0  0  0  0  0  0
    2.7845   -1.5229    0.0000 N   0  0  0  0  0  0  0  0  0  0  0  0
    1.3556   -1.5229    0.0000 N   0  0  0  0  0  0  0  0  0  0  0  0
  1  2  1  0  0  0  0
  2  3  2  0  0  0  0
  3  4  1  0  0  0  0
  5  4  1  6  0  0  0
  5  6  1  0  0  0  0
  6  7  1  0  0  0  0
  7  8  1  1  0  0  0
  8  9  1  0  0  0  0
  9 10  1  0  0  0  0
 10 11  1  0  0  0  0
 10 12  1  0  0  0  0
 10 13  2  0  0  0  0
  7 14  1  0  0  0  0
 14 15  1  6  0  0  0
 14 16  1  0  0  0  0
  5 16  1  0  0  0  0
 16 17  1  1  0  0  0
  4 18  1  0  0  0  0
 18 19  2  0  0  0  0
  2 19  1  0  0  0  0
 19 20  1  0  0  0  0
 20 21  2  0  0  0  0
 20 22  1  0  0  0  0
 22 23  1  0  0  0  0
 23 24  1  0  0  0  0
 23 25  2  0  0  0  0
 18 25  1  0  0  0  0
M  END
> <DRUGBANK_ID>
DB03593

> <DRUG_GROUPS>
experimental

> <GENERIC_NAME>
N7-Methyl-Guanosine-5'-Monophosphate

> <CHEMICAL_FORMULA>
C11H17N5O8P

> <MOLECULAR_WEIGHT>
378.2551

> <EXACT_MASS>
378.081474057

> <IUPAC_NAME>
2-amino-9-[(2R,3R,4R,5S)-3,4-dihydroxy-5-[(phosphonooxy)methyl]oxolan-2-yl]-7-methyl-6-oxo-6,9-dihydro-1H-purin-7-ium

> <IUPAC_TRADITIONAL_NAME>
2-amino-9-[(2R,3R,4R,5S)-3,4-dihydroxy-5-[(phosphonooxy)methyl]oxolan-2-yl]-7-methyl-6-oxo-1H-purin-7-ium

> <INCHI_IDENTIFIER>
InChI=1S/C11H16N5O8P/c1-15-3-16(8-5(15)9(19)14-11(12)13-8)10-7(18)6(17)4(24-10)2-23-25(20,21)22/h3-4,6-7,10,17-18H,2H2,1H3,(H4-,12,13,14,19,20,21,22)/p+1/t4-,6-,7+,10+/m0/s1

> <INCHI_KEY>
InChIKey=AOKQNZVJJXPUQA-FCIPNVEPSA-O

> <SMILES>
C[N+]1=CN([C@@H]2O[C@@H](COP(O)(O)=O)[C@H](O)[C@H]2O)C2=C1C(=O)NC(N)=N2

> <JCHEM_ACCEPTOR_COUNT>
9

> <JCHEM_DONOR_COUNT>
6

> <JCHEM_ACIDIC_PKA>
1.21

> <JCHEM_BASIC_PKA>
3.1

> <JCHEM_PHYSIOLOGICAL_CHARGE>
-1

> <ALOGPS_LOGP>
-2.4

> <JCHEM_LOGP>
-8.6

> <ALOGPS_LOGS>
-2.4

> <JCHEM_POLARIZABILITY>
33.15

> <JCHEM_POLAR_SURFACE_AREA>
192.74

> <JCHEM_REFRACTIVITY>
80.69

> <JCHEM_ROTATABLE_BOND_COUNT>
4

> <ALOGPS_SOLUBILITY>
1.80e+00 g/l __ 

$$$$
