
  Mrv0541 02231217072D          

 10 10  0  0  0  0            999 V2000
    0.0000    3.3000    0.0000 N   0  0  0  0  0  0  0  0  0  0  0  0
    0.0000    2.4750    0.0000 C   0  0  0  0  0  0  0  0  0  0  0  0
   -0.7145    2.0625    0.0000 S   0  0  0  0  0  0  0  0  0  0  0  0
    0.7145    2.0625    0.0000 N   0  0  0  0  0  0  0  0  0  0  0  0
    0.7145    1.2375    0.0000 C   0  0  0  0  0  0  0  0  0  0  0  0
    1.4289    0.8250    0.0000 C   0  0  0  0  0  0  0  0  0  0  0  0
    1.4289    0.0000    0.0000 C   0  0  0  0  0  0  0  0  0  0  0  0
    0.7145   -0.4125    0.0000 C   0  0  0  0  0  0  0  0  0  0  0  0
    0.0000    0.0000    0.0000 C   0  0  0  0  0  0  0  0  0  0  0  0
    0.0000    0.8250    0.0000 C   0  0  0  0  0  0  0  0  0  0  0  0
  1  2  1  0  0  0  0
  2  3  2  0  0  0  0
  2  4  1  0  0  0  0
  4  5  1  0  0  0  0
  5  6  2  0  0  0  0
  6  7  1  0  0  0  0
  7  8  2  0  0  0  0
  8  9  1  0  0  0  0
  9 10  2  0  0  0  0
  5 10  1  0  0  0  0
M  END
> <DRUGBANK_ID>
DB03694

> <DRUG_GROUPS>
experimental

> <GENERIC_NAME>
N-Phenylthiourea

> <CHEMICAL_FORMULA>
C7H8N2S

> <MOLECULAR_WEIGHT>
152.217

> <EXACT_MASS>
152.040818956

> <IUPAC_NAME>
phenylthiourea

> <IUPAC_TRADITIONAL_NAME>
N-phenylthiourea

> <INCHI_IDENTIFIER>
InChI=1S/C7H8N2S/c8-7(10)9-6-4-2-1-3-5-6/h1-5H,(H3,8,9,10)

> <INCHI_KEY>
InChIKey=FULZLIGZKMKICU-UHFFFAOYSA-N

> <SMILES>
NC(=S)NC1=CC=CC=C1

> <JCHEM_ACCEPTOR_COUNT>
0

> <JCHEM_DONOR_COUNT>
2

> <JCHEM_ACIDIC_PKA>
9.62

> <JCHEM_BASIC_PKA>
-3

> <JCHEM_PHYSIOLOGICAL_CHARGE>
0

> <ALOGPS_LOGP>
0.57

> <JCHEM_LOGP>
1.77

> <ALOGPS_LOGS>
-2.2

> <JCHEM_POLARIZABILITY>
16.05

> <JCHEM_POLAR_SURFACE_AREA>
38.05

> <JCHEM_REFRACTIVITY>
47.59

> <JCHEM_ROTATABLE_BOND_COUNT>
1

> <ALOGPS_SOLUBILITY>
9.04e-01 g/l __ 

$$$$
