
  Mrv0541 02231217142D          

  6  5  0  0  1  0            999 V2000
    2.4750   -1.4289    0.0000 O   0  0  0  0  0  0  0  0  0  0  0  0
    2.0625   -0.7145    0.0000 C   0  0  0  0  0  0  0  0  0  0  0  0
    1.2375   -0.7145    0.0000 C   0  0  1  0  0  0  0  0  0  0  0  0
    0.8250   -1.4289    0.0000 O   0  0  0  0  0  0  0  0  0  0  0  0
    0.8250    0.0000    0.0000 C   0  0  0  0  0  0  0  0  0  0  0  0
    0.0000    0.0000    0.0000 S   0  0  0  0  0  0  0  0  0  0  0  0
  1  2  1  0  0  0  0
  2  3  1  0  0  0  0
  3  4  1  1  0  0  0
  3  5  1  0  0  0  0
  5  6  1  0  0  0  0
M  END
> <DRUGBANK_ID>
DB03864

> <DRUG_GROUPS>
experimental

> <GENERIC_NAME>
Monothioglycerol

> <CHEMICAL_FORMULA>
C3H8O2S

> <MOLECULAR_WEIGHT>
108.159

> <EXACT_MASS>
108.02450019

> <IUPAC_NAME>
(2R)-3-sulfanylpropane-1,2-diol

> <IUPAC_TRADITIONAL_NAME>
monothioglycerol

> <INCHI_IDENTIFIER>
InChI=1S/C3H8O2S/c4-1-3(5)2-6/h3-6H,1-2H2/t3-/m1/s1

> <INCHI_KEY>
InChIKey=PJUIMOJAAPLTRJ-GSVOUGTGSA-N

> <SMILES>
OC[C@@H](O)CS

> <JCHEM_ACCEPTOR_COUNT>
2

> <JCHEM_DONOR_COUNT>
3

> <JCHEM_ACIDIC_PKA>
9.92

> <JCHEM_BASIC_PKA>
-2.9

> <JCHEM_PHYSIOLOGICAL_CHARGE>
0

> <ALOGPS_LOGP>
-0.29

> <JCHEM_LOGP>
-0.74

> <ALOGPS_LOGS>
-0.43

> <JCHEM_POLARIZABILITY>
10.98

> <JCHEM_POLAR_SURFACE_AREA>
40.46

> <JCHEM_REFRACTIVITY>
26.7

> <JCHEM_ROTATABLE_BOND_COUNT>
2

> <ALOGPS_SOLUBILITY>
4.05e+01 g/l __ 

$$$$
