
  Mrv0541 02231216492D          

 61 63  0  0  1  0            999 V2000
  -23.1060    6.7389    0.0000 C   0  0  0  0  0  0  0  0  0  0  0  0
  -22.4091    6.2973    0.0000 C   0  0  0  0  0  0  0  0  0  0  0  0
  -21.6783    6.6801    0.0000 C   0  0  0  0  0  0  0  0  0  0  0  0
  -20.9814    6.2385    0.0000 C   0  0  0  0  0  0  0  0  0  0  0  0
  -20.2506    6.6212    0.0000 C   0  0  0  0  0  0  0  0  0  0  0  0
  -19.5537    6.1796    0.0000 C   0  0  0  0  0  0  0  0  0  0  0  0
  -18.8228    6.5623    0.0000 C   0  0  0  0  0  0  0  0  0  0  0  0
  -18.1260    6.1207    0.0000 C   0  0  0  0  0  0  0  0  0  0  0  0
  -17.3951    6.5034    0.0000 C   0  0  0  0  0  0  0  0  0  0  0  0
  -16.6982    6.0618    0.0000 C   0  0  0  0  0  0  0  0  0  0  0  0
  -15.9674    6.4445    0.0000 C   0  0  0  0  0  0  0  0  0  0  0  0
  -15.2705    6.0030    0.0000 C   0  0  0  0  0  0  0  0  0  0  0  0
  -15.3045    5.1787    0.0000 O   0  0  0  0  0  0  0  0  0  0  0  0
  -14.5396    6.3857    0.0000 S   0  0  0  0  0  0  0  0  0  0  0  0
  -13.8428    5.9441    0.0000 C   0  0  0  0  0  0  0  0  0  0  0  0
  -13.1119    6.3268    0.0000 C   0  0  0  0  0  0  0  0  0  0  0  0
  -12.4150    5.8852    0.0000 N   0  0  0  0  0  0  0  0  0  0  0  0
  -11.6842    6.2679    0.0000 C   0  0  0  0  0  0  0  0  0  0  0  0
  -11.6502    7.0922    0.0000 O   0  0  0  0  0  0  0  0  0  0  0  0
  -10.9873    5.8263    0.0000 C   0  0  0  0  0  0  0  0  0  0  0  0
  -10.2565    6.2090    0.0000 C   0  0  0  0  0  0  0  0  0  0  0  0
   -9.5596    5.7674    0.0000 N   0  0  0  0  0  0  0  0  0  0  0  0
   -8.8287    6.1502    0.0000 C   0  0  0  0  0  0  0  0  0  0  0  0
   -8.7947    6.9745    0.0000 O   0  0  0  0  0  0  0  0  0  0  0  0
   -8.1319    5.7086    0.0000 C   0  0  1  0  0  0  0  0  0  0  0  0
   -8.1658    4.8843    0.0000 O   0  0  0  0  0  0  0  0  0  0  0  0
   -7.4010    6.0913    0.0000 C   0  0  0  0  0  0  0  0  0  0  0  0
   -7.0183    5.3604    0.0000 C   0  0  0  0  0  0  0  0  0  0  0  0
   -7.7837    6.8221    0.0000 C   0  0  0  0  0  0  0  0  0  0  0  0
   -6.6701    6.4740    0.0000 C   0  0  0  0  0  0  0  0  0  0  0  0
   -5.9733    6.0324    0.0000 O   0  0  0  0  0  0  0  0  0  0  0  0
   -5.2424    6.4151    0.0000 P   0  0  2  0  0  0  0  0  0  0  0  0
   -4.8597    5.6842    0.0000 O   0  0  0  0  0  0  0  0  0  0  0  0
   -5.6251    7.1460    0.0000 O   0  0  0  0  0  0  0  0  0  0  0  0
   -4.5115    6.7978    0.0000 O   0  0  0  0  0  0  0  0  0  0  0  0
   -3.8147    6.3562    0.0000 P   0  0  1  0  0  0  0  0  0  0  0  0
   -4.2563    5.6594    0.0000 O   0  0  0  0  0  0  0  0  0  0  0  0
   -3.3731    7.0531    0.0000 O   0  0  0  0  0  0  0  0  0  0  0  0
   -3.1178    5.9146    0.0000 O   0  0  0  0  0  0  0  0  0  0  0  0
   -2.3869    6.2973    0.0000 C   0  0  0  0  0  0  0  0  0  0  0  0
   -1.6901    5.8558    0.0000 C   0  0  2  0  0  0  0  0  0  0  0  0
   -0.9232    6.1600    0.0000 O   0  0  0  0  0  0  0  0  0  0  0  0
   -0.3969    5.5247    0.0000 C   0  0  2  0  0  0  0  0  0  0  0  0
   -0.8385    4.8278    0.0000 C   0  0  2  0  0  0  0  0  0  0  0  0
   -0.5343    4.0609    0.0000 O   0  0  0  0  0  0  0  0  0  0  0  0
   -1.6377    5.0324    0.0000 C   0  0  1  0  0  0  0  0  0  0  0  0
   -2.2730    4.5061    0.0000 O   0  0  0  0  0  0  0  0  0  0  0  0
   -3.0465    4.7932    0.0000 P   0  0  0  0  0  0  0  0  0  0  0  0
   -2.7594    5.5666    0.0000 O   0  0  0  0  0  0  0  0  0  0  0  0
   -3.3335    4.0197    0.0000 O   0  0  0  0  0  0  0  0  0  0  0  0
   -3.8199    5.0802    0.0000 O   0  0  0  0  0  0  0  0  0  0  0  0
    0.4264    5.5770    0.0000 N   0  0  0  0  0  0  0  0  0  0  0  0
    0.9527    4.9417    0.0000 C   0  0  0  0  0  0  0  0  0  0  0  0
    1.7196    5.2459    0.0000 N   0  0  0  0  0  0  0  0  0  0  0  0
    1.6672    6.0692    0.0000 C   0  0  0  0  0  0  0  0  0  0  0  0
    0.8680    6.2739    0.0000 C   0  0  0  0  0  0  0  0  0  0  0  0
    0.6456    7.0683    0.0000 N   0  0  0  0  0  0  0  0  0  0  0  0
    1.2224    7.6582    0.0000 C   0  0  0  0  0  0  0  0  0  0  0  0
    2.0217    7.4535    0.0000 N   0  0  0  0  0  0  0  0  0  0  0  0
    2.2441    6.6591    0.0000 C   0  0  0  0  0  0  0  0  0  0  0  0
    3.0433    6.4544    0.0000 N   0  0  0  0  0  0  0  0  0  0  0  0
  1  2  1  0  0  0  0
  2  3  1  0  0  0  0
  3  4  1  0  0  0  0
  4  5  1  0  0  0  0
  5  6  1  0  0  0  0
  6  7  1  0  0  0  0
  7  8  1  0  0  0  0
  8  9  1  0  0  0  0
  9 10  1  0  0  0  0
 10 11  1  0  0  0  0
 11 12  1  0  0  0  0
 12 13  2  0  0  0  0
 12 14  1  0  0  0  0
 14 15  1  0  0  0  0
 15 16  1  0  0  0  0
 16 17  1  0  0  0  0
 17 18  1  0  0  0  0
 18 19  2  0  0  0  0
 18 20  1  0  0  0  0
 20 21  1  0  0  0  0
 21 22  1  0  0  0  0
 22 23  1  0  0  0  0
 23 24  2  0  0  0  0
 23 25  1  0  0  0  0
 25 26  1  6  0  0  0
 25 27  1  0  0  0  0
 27 28  1  0  0  0  0
 27 29  1  0  0  0  0
 27 30  1  0  0  0  0
 30 31  1  0  0  0  0
 32 31  1  6  0  0  0
 32 33  1  1  0  0  0
 32 34  2  0  0  0  0
 32 35  1  0  0  0  0
 36 35  1  1  0  0  0
 36 37  1  6  0  0  0
 36 38  2  0  0  0  0
 36 39  1  0  0  0  0
 39 40  1  0  0  0  0
 41 40  1  6  0  0  0
 41 42  1  0  0  0  0
 42 43  1  0  0  0  0
 43 44  1  0  0  0  0
 44 45  1  6  0  0  0
 44 46  1  0  0  0  0
 41 46  1  0  0  0  0
 46 47  1  1  0  0  0
 47 48  1  0  0  0  0
 48 49  1  0  0  0  0
 48 50  1  0  0  0  0
 48 51  2  0  0  0  0
 43 52  1  1  0  0  0
 52 53  1  0  0  0  0
 53 54  2  0  0  0  0
 54 55  1  0  0  0  0
 55 56  2  0  0  0  0
 52 56  1  0  0  0  0
 56 57  1  0  0  0  0
 57 58  2  0  0  0  0
 58 59  1  0  0  0  0
 59 60  2  0  0  0  0
 55 60  1  0  0  0  0
 60 61  1  0  0  0  0
M  END
> <DRUGBANK_ID>
DB03264

> <DRUG_GROUPS>
experimental

> <GENERIC_NAME>
Dodecyl-Coa

> <CHEMICAL_FORMULA>
C33H58N7O17P3S

> <MOLECULAR_WEIGHT>
949.837

> <EXACT_MASS>
949.282273691

> <IUPAC_NAME>
{[(2S,3R,4R,5R)-5-(6-amino-9H-purin-9-yl)-2-({[({[(3S)-3-[(2-{[2-(dodecanoylsulfanyl)ethyl]carbamoyl}ethyl)carbamoyl]-3-hydroxy-2,2-dimethylpropoxy](hydroxy)phosphoryl}oxy)(hydroxy)phosphoryl]oxy}methyl)-4-hydroxyoxolan-3-yl]oxy}phosphonic acid

> <IUPAC_TRADITIONAL_NAME>
[(2S,3R,4R,5R)-5-(6-aminopurin-9-yl)-2-[({[(3S)-3-[(2-{[2-(dodecanoylsulfanyl)ethyl]carbamoyl}ethyl)carbamoyl]-3-hydroxy-2,2-dimethylpropoxy(hydroxy)phosphoryl]oxy(hydroxy)phosphoryl}oxy)methyl]-4-hydroxyoxolan-3-yl]oxyphosphonic acid

> <INCHI_IDENTIFIER>
InChI=1S/C33H58N7O17P3S/c1-4-5-6-7-8-9-10-11-12-13-24(42)61-17-16-35-23(41)14-15-36-31(45)28(44)33(2,3)19-54-60(51,52)57-59(49,50)53-18-22-27(56-58(46,47)48)26(43)32(55-22)40-21-39-25-29(34)37-20-38-30(25)40/h20-22,26-28,32,43-44H,4-19H2,1-3H3,(H,35,41)(H,36,45)(H,49,50)(H,51,52)(H2,34,37,38)(H2,46,47,48)/t22-,26+,27-,28+,32+/m0/s1

> <INCHI_KEY>
InChIKey=YMCXGHLSVALICC-ZEAOYFJMSA-N

> <SMILES>
CCCCCCCCCCCC(=O)SCCNC(=O)CCNC(=O)[C@@H](O)C(C)(C)CO[P@](O)(=O)O[P@@](O)(=O)OC[C@@H]1O[C@H]([C@H](O)[C@H]1OP(O)(O)=O)N1C=NC2=C1N=CN=C2N

> <JCHEM_ACCEPTOR_COUNT>
17

> <JCHEM_DONOR_COUNT>
9

> <JCHEM_ACIDIC_PKA>
0.83

> <JCHEM_BASIC_PKA>
4.95

> <JCHEM_PHYSIOLOGICAL_CHARGE>
-4

> <ALOGPS_LOGP>
1.35

> <JCHEM_LOGP>
-2.3

> <ALOGPS_LOGS>
-2.6

> <JCHEM_POLARIZABILITY>
92.45

> <JCHEM_POLAR_SURFACE_AREA>
363.63

> <JCHEM_REFRACTIVITY>
218.24

> <JCHEM_ROTATABLE_BOND_COUNT>
30

> <ALOGPS_SOLUBILITY>
2.59e+00 g/l __ 

$$$$
