
  Mrv0541 02231216442D          

 19 21  0  0  1  0            999 V2000
    3.2789    2.0625    0.0000 N   0  0  0  0  0  0  0  0  0  0  0  0
    3.2789    1.2375    0.0000 C   0  0  0  0  0  0  0  0  0  0  0  0
    3.9934    0.8250    0.0000 N   0  0  0  0  0  0  0  0  0  0  0  0
    3.9934    0.0000    0.0000 C   0  0  0  0  0  0  0  0  0  0  0  0
    3.2789   -0.4125    0.0000 N   0  0  0  0  0  0  0  0  0  0  0  0
    2.5645    0.0000    0.0000 C   0  0  0  0  0  0  0  0  0  0  0  0
    2.5645    0.8250    0.0000 C   0  0  0  0  0  0  0  0  0  0  0  0
    1.7798    1.0799    0.0000 C   0  0  0  0  0  0  0  0  0  0  0  0
    1.2949    0.4125    0.0000 C   0  0  0  0  0  0  0  0  0  0  0  0
    1.7798   -0.2549    0.0000 N   0  0  0  0  0  0  0  0  0  0  0  0
    1.5249   -1.0396    0.0000 C   0  0  2  0  0  0  0  0  0  0  0  0
    2.0098   -1.7070    0.0000 O   0  0  0  0  0  0  0  0  0  0  0  0
    1.5249   -2.3744    0.0000 C   0  0  1  0  0  0  0  0  0  0  0  0
    1.7798   -3.1591    0.0000 C   0  0  0  0  0  0  0  0  0  0  0  0
    2.5868   -3.3306    0.0000 O   0  0  0  0  0  0  0  0  0  0  0  0
    0.7403   -2.1195    0.0000 C   0  0  2  0  0  0  0  0  0  0  0  0
    0.0728   -2.6044    0.0000 O   0  0  0  0  0  0  0  0  0  0  0  0
    0.7403   -1.2945    0.0000 C   0  0  1  0  0  0  0  0  0  0  0  0
    0.0728   -0.8096    0.0000 O   0  0  0  0  0  0  0  0  0  0  0  0
  1  2  1  0  0  0  0
  2  3  2  0  0  0  0
  3  4  1  0  0  0  0
  4  5  2  0  0  0  0
  5  6  1  0  0  0  0
  6  7  2  0  0  0  0
  2  7  1  0  0  0  0
  7  8  1  0  0  0  0
  8  9  2  0  0  0  0
  9 10  1  0  0  0  0
  6 10  1  0  0  0  0
 11 10  1  6  0  0  0
 11 12  1  0  0  0  0
 12 13  1  0  0  0  0
 13 14  1  1  0  0  0
 14 15  1  0  0  0  0
 13 16  1  0  0  0  0
 16 17  1  6  0  0  0
 16 18  1  0  0  0  0
 11 18  1  0  0  0  0
 18 19  1  1  0  0  0
M  END
> <DRUGBANK_ID>
DB03172

> <DRUG_GROUPS>
experimental

> <GENERIC_NAME>
Tubercidin

> <SYNONYMS>
7-deazaadenosine; Sparsomycin A

> <CHEMICAL_FORMULA>
C11H14N4O4

> <MOLECULAR_WEIGHT>
266.2533

> <EXACT_MASS>
266.101504956

> <IUPAC_NAME>
(2R,3R,4R,5S)-2-{4-amino-7H-pyrrolo[2,3-d]pyrimidin-7-yl}-5-(hydroxymethyl)oxolane-3,4-diol

> <IUPAC_TRADITIONAL_NAME>
tubercidin

> <INCHI_IDENTIFIER>
InChI=1S/C11H14N4O4/c12-9-5-1-2-15(10(5)14-4-13-9)11-8(18)7(17)6(3-16)19-11/h1-2,4,6-8,11,16-18H,3H2,(H2,12,13,14)/t6-,7-,8+,11+/m0/s1

> <INCHI_KEY>
InChIKey=HDZZVAMISRMYHH-LITAXDCLSA-N

> <SMILES>
NC1=NC=NC2=C1C=CN2[C@@H]1O[C@@H](CO)[C@H](O)[C@H]1O

> <JCHEM_ACCEPTOR_COUNT>
7

> <JCHEM_DONOR_COUNT>
4

> <JCHEM_ACIDIC_PKA>
12.46

> <JCHEM_BASIC_PKA>
7.2

> <JCHEM_PHYSIOLOGICAL_CHARGE>
1

> <ALOGPS_LOGP>
-0.83

> <JCHEM_LOGP>
-1.3

> <ALOGPS_LOGS>
-1.2

> <JCHEM_POLARIZABILITY>
25.6

> <JCHEM_POLAR_SURFACE_AREA>
126.65

> <JCHEM_REFRACTIVITY>
65.37

> <JCHEM_ROTATABLE_BOND_COUNT>
2

> <ALOGPS_SOLUBILITY>
1.66e+01 g/l __ 

$$$$
