
  Mrv0541 02231217142D          

 14 13  0  0  1  0            999 V2000
    2.9980   -2.5559    0.0000 O   0  0  0  0  0  0  0  0  0  0  0  0
    3.7125   -2.1434    0.0000 N   0  0  0  0  0  0  0  0  0  0  0  0
    4.4270   -2.5559    0.0000 C   0  0  2  0  0  0  0  0  0  0  0  0
    4.4270   -3.3809    0.0000 O   0  0  0  0  0  0  0  0  0  0  0  0
    5.1414   -2.1434    0.0000 C   0  0  1  0  0  0  0  0  0  0  0  0
    5.1414   -1.3184    0.0000 O   0  0  0  0  0  0  0  0  0  0  0  0
    5.8559   -2.5559    0.0000 C   0  0  2  0  0  0  0  0  0  0  0  0
    5.8559   -3.3809    0.0000 O   0  0  0  0  0  0  0  0  0  0  0  0
    6.5704   -2.1434    0.0000 C   0  0  0  0  0  0  0  0  0  0  0  0
    7.2849   -2.5559    0.0000 O   0  0  0  0  0  0  0  0  0  0  0  0
    7.9993   -2.1434    0.0000 P   0  0  0  0  0  0  0  0  0  0  0  0
    8.7138   -1.7309    0.0000 O   0  0  0  0  0  0  0  0  0  0  0  0
    8.4118   -2.8579    0.0000 O   0  0  0  0  0  0  0  0  0  0  0  0
    7.5868   -1.4289    0.0000 O   0  0  0  0  0  0  0  0  0  0  0  0
  1  2  1  0  0  0  0
  2  3  1  0  0  0  0
  3  4  1  1  0  0  0
  3  5  1  0  0  0  0
  5  6  1  1  0  0  0
  5  7  1  0  0  0  0
  7  8  1  1  0  0  0
  7  9  1  0  0  0  0
  9 10  1  0  0  0  0
 10 11  1  0  0  0  0
 11 12  1  0  0  0  0
 11 13  1  0  0  0  0
 11 14  2  0  0  0  0
M  END
> <DRUGBANK_ID>
DB03855

> <DRUG_GROUPS>
experimental

> <GENERIC_NAME>
L-Threonohydroxamate 4-Phosphate

> <CHEMICAL_FORMULA>
C4H12NO8P

> <MOLECULAR_WEIGHT>
233.1137

> <EXACT_MASS>
233.030052877

> <IUPAC_NAME>
[(2R,3S,4R)-2,3,4-trihydroxy-4-(hydroxyamino)butoxy]phosphonic acid

> <IUPAC_TRADITIONAL_NAME>
(2R,3S,4R)-2,3,4-trihydroxy-4-(hydroxyamino)butoxyphosphonic acid

> <INCHI_IDENTIFIER>
InChI=1S/C4H12NO8P/c6-2(1-13-14(10,11)12)3(7)4(8)5-9/h2-9H,1H2,(H2,10,11,12)/t2-,3+,4-/m1/s1

> <INCHI_KEY>
InChIKey=CSVKNYIFCYRDJM-FLRLBIABSA-N

> <SMILES>
ON[C@H](O)[C@@H](O)[C@H](O)COP(O)(O)=O

> <JCHEM_ACCEPTOR_COUNT>
8

> <JCHEM_DONOR_COUNT>
7

> <JCHEM_ACIDIC_PKA>
3.4

> <JCHEM_BASIC_PKA>
1.47

> <JCHEM_PHYSIOLOGICAL_CHARGE>
-2

> <ALOGPS_LOGP>
-2.3

> <JCHEM_LOGP>
-4.1

> <ALOGPS_LOGS>
-1.2

> <JCHEM_POLARIZABILITY>
18.45

> <JCHEM_POLAR_SURFACE_AREA>
159.71

> <JCHEM_REFRACTIVITY>
52.3

> <JCHEM_ROTATABLE_BOND_COUNT>
6

> <ALOGPS_SOLUBILITY>
1.56e+01 g/l __ 

$$$$
