
  Mrv0541 02231216552D          

  9  9  0  0  1  0            999 V2000
    2.6329    0.3323    0.0000 O   0  0  0  0  0  0  0  0  0  0  0  0
    2.0198    0.8843    0.0000 C   0  0  0  0  0  0  0  0  0  0  0  0
    1.2352    0.6294    0.0000 C   0  0  2  0  0  0  0  0  0  0  0  0
    0.9803   -0.1553    0.0000 N   0  0  0  0  0  0  0  0  0  0  0  0
    0.1553   -0.1553    0.0000 C   0  0  0  0  0  0  0  0  0  0  0  0
   -0.0997    0.6294    0.0000 C   0  0  2  0  0  0  0  0  0  0  0  0
   -0.8843    0.8843    0.0000 O   0  0  0  0  0  0  0  0  0  0  0  0
    0.5678    1.1143    0.0000 C   0  0  1  0  0  0  0  0  0  0  0  0
    0.5678    1.9393    0.0000 O   0  0  0  0  0  0  0  0  0  0  0  0
  1  2  1  0  0  0  0
  3  2  1  6  0  0  0
  3  4  1  0  0  0  0
  4  5  1  0  0  0  0
  5  6  1  0  0  0  0
  6  7  1  6  0  0  0
  6  8  1  0  0  0  0
  3  8  1  0  0  0  0
  8  9  1  1  0  0  0
M  END
> <DRUGBANK_ID>
DB03411

> <DRUG_GROUPS>
experimental

> <GENERIC_NAME>
2-Hydroxymethyl-Pyrrolidine-3,4-Diol

> <CHEMICAL_FORMULA>
C5H11NO3

> <MOLECULAR_WEIGHT>
133.1457

> <EXACT_MASS>
133.073893223

> <IUPAC_NAME>
(2S,3S,4S)-2-(hydroxymethyl)pyrrolidine-3,4-diol

> <IUPAC_TRADITIONAL_NAME>
(2S,3S,4S)-2-(hydroxymethyl)pyrrolidine-3,4-diol

> <INCHI_IDENTIFIER>
InChI=1S/C5H11NO3/c7-2-3-5(9)4(8)1-6-3/h3-9H,1-2H2/t3-,4-,5-/m0/s1

> <INCHI_KEY>
InChIKey=OQEBIHBLFRADNM-YUPRTTJUSA-N

> <SMILES>
OC[C@@H]1NC[C@H](O)[C@H]1O

> <JCHEM_ACCEPTOR_COUNT>
4

> <JCHEM_DONOR_COUNT>
4

> <JCHEM_ACIDIC_PKA>
13.32

> <JCHEM_BASIC_PKA>
9.36

> <JCHEM_PHYSIOLOGICAL_CHARGE>
1

> <ALOGPS_LOGP>
-1.8

> <JCHEM_LOGP>
-2.3

> <ALOGPS_LOGS>
0.69

> <JCHEM_POLARIZABILITY>
13.1

> <JCHEM_POLAR_SURFACE_AREA>
72.72

> <JCHEM_REFRACTIVITY>
30.61

> <JCHEM_ROTATABLE_BOND_COUNT>
1

> <ALOGPS_SOLUBILITY>
6.59e+02 g/l __ 

$$$$
