
  Mrv0541 02231216402D          

 16 17  0  0  1  0            999 V2000
    0.0000    0.0000    0.0000 O   0  0  0  0  0  0  0  0  0  0  0  0
    0.7145   -0.4125    0.0000 C   0  0  0  0  0  0  0  0  0  0  0  0
    0.7145   -1.2375    0.0000 C   0  0  1  0  0  0  0  0  0  0  0  0
    1.3819   -1.7224    0.0000 O   0  0  0  0  0  0  0  0  0  0  0  0
    1.1270   -2.5070    0.0000 C   0  0  2  0  0  0  0  0  0  0  0  0
    0.3020   -2.5070    0.0000 C   0  0  2  0  0  0  0  0  0  0  0  0
   -0.1830   -3.1745    0.0000 O   0  0  0  0  0  0  0  0  0  0  0  0
    0.0470   -1.7224    0.0000 C   0  0  2  0  0  0  0  0  0  0  0  0
   -0.7376   -1.4675    0.0000 O   0  0  0  0  0  0  0  0  0  0  0  0
    1.6119   -3.1745    0.0000 N   0  0  0  0  0  0  0  0  0  0  0  0
    2.4324   -3.0882    0.0000 C   0  0  0  0  0  0  0  0  0  0  0  0
    2.9173   -3.7557    0.0000 C   0  0  0  0  0  0  0  0  0  0  0  0
    2.5817   -4.5094    0.0000 C   0  0  0  0  0  0  0  0  0  0  0  0
    1.7613   -4.5956    0.0000 N   0  0  0  0  0  0  0  0  0  0  0  0
    1.2763   -3.9282    0.0000 C   0  0  0  0  0  0  0  0  0  0  0  0
    0.4559   -4.0144    0.0000 O   0  0  0  0  0  0  0  0  0  0  0  0
  1  2  1  0  0  0  0
  3  2  1  1  0  0  0
  3  4  1  0  0  0  0
  4  5  1  0  0  0  0
  5  6  1  0  0  0  0
  6  7  1  6  0  0  0
  6  8  1  0  0  0  0
  3  8  1  0  0  0  0
  8  9  1  6  0  0  0
  5 10  1  1  0  0  0
 10 11  1  0  0  0  0
 11 12  2  0  0  0  0
 12 13  1  0  0  0  0
 13 14  2  0  0  0  0
 14 15  1  0  0  0  0
 10 15  1  0  0  0  0
 15 16  2  0  0  0  0
M  END
> <DRUGBANK_ID>
DB03068

> <DRUG_GROUPS>
experimental

> <GENERIC_NAME>
Zebularine

> <SYNONYMS>
1-beta-D-ribofuranosyl-2(1H)-pyrimidinone; 1-beta-D-ribofuranosylpyrimidin-2(1H)-one; Pyrimidin-2-one beta-D-ribofuranoside; pyrimidin-2-one beta-ribofuranoside; Pyrimidin-2-one ribonucleoside

> <CHEMICAL_FORMULA>
C9H12N2O5

> <MOLECULAR_WEIGHT>
228.202

> <EXACT_MASS>
228.074621504

> <IUPAC_NAME>
1-[(2R,3R,4S,5R)-3,4-dihydroxy-5-(hydroxymethyl)oxolan-2-yl]-1,2-dihydropyrimidin-2-one

> <IUPAC_TRADITIONAL_NAME>
zebularine

> <INCHI_IDENTIFIER>
InChI=1S/C9H12N2O5/c12-4-5-6(13)7(14)8(16-5)11-3-1-2-10-9(11)15/h1-3,5-8,12-14H,4H2/t5-,6-,7-,8-/m1/s1

> <INCHI_KEY>
InChIKey=RPQZTTQVRYEKCR-WCTZXXKLSA-N

> <SMILES>
OC[C@H]1O[C@H]([C@H](O)[C@@H]1O)N1C=CC=NC1=O

> <JCHEM_ACCEPTOR_COUNT>
6

> <JCHEM_DONOR_COUNT>
3

> <JCHEM_ACIDIC_PKA>
12.55

> <JCHEM_BASIC_PKA>
-3

> <JCHEM_PHYSIOLOGICAL_CHARGE>
0

> <ALOGPS_LOGP>
-1.3

> <JCHEM_LOGP>
-2.2

> <ALOGPS_LOGS>
-0.59

> <JCHEM_POLARIZABILITY>
20.83

> <JCHEM_POLAR_SURFACE_AREA>
102.59

> <JCHEM_REFRACTIVITY>
51.68

> <JCHEM_ROTATABLE_BOND_COUNT>
2

> <ALOGPS_SOLUBILITY>
5.82e+01 g/l __ 

$$$$
