GC7
  Mrv0541 02231217052D          

 12 11  0  0  0  0            999 V2000
   -3.6934    0.3043    0.0000 N   0  0  0  0  0  0  0  0  0  0  0  0
   -2.9788   -0.1082    0.0000 C   0  0  0  0  0  0  0  0  0  0  0  0
   -2.2643    0.3043    0.0000 C   0  0  0  0  0  0  0  0  0  0  0  0
   -1.5497   -0.1082    0.0000 C   0  0  0  0  0  0  0  0  0  0  0  0
   -0.8353    0.3043    0.0000 C   0  0  0  0  0  0  0  0  0  0  0  0
   -0.1207   -0.1082    0.0000 C   0  0  0  0  0  0  0  0  0  0  0  0
    0.5938    0.3043    0.0000 C   0  0  0  0  0  0  0  0  0  0  0  0
    1.3083   -0.1082    0.0000 C   0  0  0  0  0  0  0  0  0  0  0  0
    2.0229    0.3043    0.0000 N   0  0  0  0  0  0  0  0  0  0  0  0
    2.7374   -0.1082    0.0000 C   0  0  0  0  0  0  0  0  0  0  0  0
    3.4520    0.3043    0.0000 N   0  0  0  0  0  0  0  0  0  0  0  0
    2.7374   -0.9333    0.0000 N   0  0  0  0  0  0  0  0  0  0  0  0
  1  2  1  0  0  0  0
  2  3  1  0  0  0  0
  3  4  1  0  0  0  0
  4  5  1  0  0  0  0
  5  6  1  0  0  0  0
  6  7  1  0  0  0  0
  7  8  1  0  0  0  0
  8  9  1  0  0  0  0
  9 10  1  0  0  0  0
 10 11  1  0  0  0  0
 10 12  1  0  0  0  0
M  END
> <DRUGBANK_ID>
DB03639

> <DRUG_GROUPS>
experimental

> <GENERIC_NAME>
1-Guanidinium-7-Aminoheptane

> <CHEMICAL_FORMULA>
C8H22N4

> <MOLECULAR_WEIGHT>
174.2871

> <EXACT_MASS>
174.184446724

> <IUPAC_NAME>
(7-aminoheptyl)(diaminomethyl)amine

> <IUPAC_TRADITIONAL_NAME>
(7-aminoheptyl)(diaminomethyl)amine

> <INCHI_IDENTIFIER>
InChI=1S/C8H22N4/c9-6-4-2-1-3-5-7-12-8(10)11/h8,12H,1-7,9-11H2

> <INCHI_KEY>
InChIKey=SKGAVCHIFDRDTK-UHFFFAOYSA-N

> <SMILES>
NCCCCCCCNC(N)N

> <JCHEM_ACCEPTOR_COUNT>
4

> <JCHEM_DONOR_COUNT>
4

> <JCHEM_BASIC_PKA>
10.21

> <JCHEM_PHYSIOLOGICAL_CHARGE>
1

> <ALOGPS_LOGP>
-0.44

> <JCHEM_LOGP>
0.04

> <ALOGPS_LOGS>
-0.86

> <JCHEM_POLARIZABILITY>
22.13

> <JCHEM_POLAR_SURFACE_AREA>
90.09

> <JCHEM_REFRACTIVITY>
52.09

> <JCHEM_ROTATABLE_BOND_COUNT>
8

> <ALOGPS_SOLUBILITY>
2.41e+01 g/l __ 

$$$$
