
  Mrv0541 02231216552D          

 12 13  0  0  1  0            999 V2000
   -0.5837   -1.4124    0.0000 O   0  0  0  0  0  0  0  0  0  0  0  0
   -0.1712   -0.6979    0.0000 C   0  0  0  0  0  0  0  0  0  0  0  0
   -0.5837    0.0165    0.0000 O   0  0  0  0  0  0  0  0  0  0  0  0
    0.6538   -0.6979    0.0000 C   0  0  2  0  0  0  0  0  0  0  0  0
    1.1387   -0.0305    0.0000 C   0  0  0  0  0  0  0  0  0  0  0  0
    1.9233   -0.2854    0.0000 C   0  0  2  0  0  0  0  0  0  0  0  0
    2.6378    0.1271    0.0000 C   0  0  0  0  0  0  0  0  0  0  0  0
    3.3523   -0.2854    0.0000 C   0  0  0  0  0  0  0  0  0  0  0  0
    3.3523   -1.1104    0.0000 C   0  0  0  0  0  0  0  0  0  0  0  0
    2.6378   -1.5229    0.0000 C   0  0  0  0  0  0  0  0  0  0  0  0
    1.9233   -1.1104    0.0000 C   0  0  1  0  0  0  0  0  0  0  0  0
    1.1387   -1.3654    0.0000 N   0  0  0  0  0  0  0  0  0  0  0  0
  1  2  1  0  0  0  0
  2  3  2  0  0  0  0
  4  2  1  6  0  0  0
  4  5  1  0  0  0  0
  6  5  1  6  0  0  0
  6  7  1  0  0  0  0
  7  8  1  0  0  0  0
  8  9  1  0  0  0  0
  9 10  1  0  0  0  0
 10 11  1  0  0  0  0
  6 11  1  0  0  0  0
 11 12  1  1  0  0  0
  4 12  1  0  0  0  0
M  END
> <DRUGBANK_ID>
DB03409

> <DRUG_GROUPS>
experimental

> <GENERIC_NAME>
Octahydroindole-2-Carboxylic Acid

> <CHEMICAL_FORMULA>
C9H15NO2

> <MOLECULAR_WEIGHT>
169.2209

> <EXACT_MASS>
169.110278729

> <IUPAC_NAME>
(2S,3aS,7aR)-octahydro-1H-indole-2-carboxylic acid

> <IUPAC_TRADITIONAL_NAME>
(2S,3aS,7aR)-octahydro-1H-indole-2-carboxylic acid

> <INCHI_IDENTIFIER>
InChI=1S/C9H15NO2/c11-9(12)8-5-6-3-1-2-4-7(6)10-8/h6-8,10H,1-5H2,(H,11,12)/t6-,7+,8-/m0/s1

> <INCHI_KEY>
InChIKey=CQYBNXGHMBNGCG-RNJXMRFFSA-N

> <SMILES>
OC(=O)[C@@H]1C[C@@H]2CCCC[C@H]2N1

> <JCHEM_ACCEPTOR_COUNT>
3

> <JCHEM_DONOR_COUNT>
2

> <JCHEM_ACIDIC_PKA>
2.09

> <JCHEM_BASIC_PKA>
11.64

> <JCHEM_PHYSIOLOGICAL_CHARGE>
0

> <ALOGPS_LOGP>
-1.1

> <JCHEM_LOGP>
-1.3

> <ALOGPS_LOGS>
-1.2

> <JCHEM_POLARIZABILITY>
18.52

> <JCHEM_POLAR_SURFACE_AREA>
49.33

> <JCHEM_REFRACTIVITY>
44.28

> <JCHEM_ROTATABLE_BOND_COUNT>
1

> <ALOGPS_SOLUBILITY>
1.09e+01 g/l __ 

$$$$
