
  Mrv0541 02231216492D          

  7  7  0  0  0  0            999 V2000
    0.7145    2.0625    0.0000 O   0  0  0  0  0  0  0  0  0  0  0  0
    0.7145    1.2375    0.0000 C   0  0  0  0  0  0  0  0  0  0  0  0
    1.4289    0.8250    0.0000 C   0  0  0  0  0  0  0  0  0  0  0  0
    1.4289    0.0000    0.0000 C   0  0  0  0  0  0  0  0  0  0  0  0
    0.7145   -0.4125    0.0000 C   0  0  0  0  0  0  0  0  0  0  0  0
    0.0000    0.0000    0.0000 C   0  0  0  0  0  0  0  0  0  0  0  0
    0.0000    0.8250    0.0000 C   0  0  0  0  0  0  0  0  0  0  0  0
  1  2  1  0  0  0  0
  2  3  2  0  0  0  0
  3  4  1  0  0  0  0
  4  5  2  0  0  0  0
  5  6  1  0  0  0  0
  6  7  2  0  0  0  0
  2  7  1  0  0  0  0
M  END
> <DRUGBANK_ID>
DB03255

> <DRUG_GROUPS>
approved; experimental

> <GENERIC_NAME>
Phenol

> <SYNONYMS>
Benzenol; Carbolic acid; Hydroxybenzene; Monohydroxybenzene; Phenic Acid; Phenyl alcohol; Phenyl hydroxide; Phenylic Acid

> <BRANDS>
CARE ONE SORE THROAT; CEPASTAT EXTRA STRENGTH; CHLORASEPTIC SORE THROAT; EQUALINE SORE THROAT; GOOD NEIGHBOR PHARMACY SORE THROAT; HEALTHY ACCENTS SORE THROAT

> <CHEMICAL_FORMULA>
C6H6O

> <MOLECULAR_WEIGHT>
94.1112

> <EXACT_MASS>
94.041864814

> <IUPAC_NAME>
phenol

> <IUPAC_TRADITIONAL_NAME>
phenol

> <INCHI_IDENTIFIER>
InChI=1S/C6H6O/c7-6-4-2-1-3-5-6/h1-5,7H

> <INCHI_KEY>
InChIKey=ISWSIDIOOBJBQZ-UHFFFAOYSA-N

> <SMILES>
OC1=CC=CC=C1

> <JCHEM_ACCEPTOR_COUNT>
1

> <JCHEM_DONOR_COUNT>
1

> <JCHEM_ACIDIC_PKA>
10.02

> <JCHEM_BASIC_PKA>
-5.5

> <JCHEM_PHYSIOLOGICAL_CHARGE>
0

> <ALOGPS_LOGP>
1.39

> <JCHEM_LOGP>
1.67

> <ALOGPS_LOGS>
-0.31

> <JCHEM_POLARIZABILITY>
9.81

> <JCHEM_POLAR_SURFACE_AREA>
20.23

> <JCHEM_REFRACTIVITY>
28.04

> <JCHEM_ROTATABLE_BOND_COUNT>
0

> <ALOGPS_SOLUBILITY>
4.66e+01 g/l __ 

$$$$
