
  Mrv0541 02231216452D          

  7  6  0  0  0  0            999 V2000
    2.8875   -0.7145    0.0000 O   0  0  0  0  0  0  0  0  0  0  0  0
    2.0625   -0.7145    0.0000 P   0  0  0  0  0  0  0  0  0  0  0  0
    2.0625    0.1105    0.0000 O   0  0  0  0  0  0  0  0  0  0  0  0
    2.0625   -1.5395    0.0000 O   0  0  0  0  0  0  0  0  0  0  0  0
    1.2375   -0.7145    0.0000 C   0  0  0  0  0  0  0  0  0  0  0  0
    0.8250    0.0000    0.0000 C   0  0  0  0  0  0  0  0  0  0  0  0
    0.0000    0.0000    0.0000 O   0  0  0  0  0  0  0  0  0  0  0  0
  1  2  1  0  0  0  0
  2  3  1  0  0  0  0
  2  4  2  0  0  0  0
  2  5  1  0  0  0  0
  5  6  1  0  0  0  0
  6  7  2  0  0  0  0
M  END
> <DRUGBANK_ID>
DB03174

> <DRUG_GROUPS>
experimental

> <GENERIC_NAME>
Phosphonoacetaldehyde

> <CHEMICAL_FORMULA>
C2H5O4P

> <MOLECULAR_WEIGHT>
124.0325

> <EXACT_MASS>
123.99254516

> <IUPAC_NAME>
(2-oxoethyl)phosphonic acid

> <IUPAC_TRADITIONAL_NAME>
2-oxoethylphosphonic acid

> <INCHI_IDENTIFIER>
InChI=1S/C2H5O4P/c3-1-2-7(4,5)6/h1H,2H2,(H2,4,5,6)

> <INCHI_KEY>
InChIKey=YEMKIGUKNDOZEG-UHFFFAOYSA-N

> <SMILES>
OP(O)(=O)CC=O

> <JCHEM_ACCEPTOR_COUNT>
4

> <JCHEM_DONOR_COUNT>
2

> <JCHEM_ACIDIC_PKA>
1.69

> <JCHEM_BASIC_PKA>
-7.3

> <JCHEM_PHYSIOLOGICAL_CHARGE>
-1

> <ALOGPS_LOGP>
-1.1

> <JCHEM_LOGP>
-1.9

> <ALOGPS_LOGS>
-0.73

> <JCHEM_POLARIZABILITY>
8.75

> <JCHEM_POLAR_SURFACE_AREA>
74.6

> <JCHEM_REFRACTIVITY>
22.71

> <JCHEM_ROTATABLE_BOND_COUNT>
2

> <ALOGPS_SOLUBILITY>
2.32e+01 g/l __ 

$$$$
