
  Mrv0541 02231217172D          

  6  5  0  0  0  0            999 V2000
    0.8250    1.4289    0.0000 N   0  0  0  0  0  0  0  0  0  0  0  0
    1.2375    0.7145    0.0000 C   0  0  0  0  0  0  0  0  0  0  0  0
    2.0625    0.7145    0.0000 O   0  0  0  0  0  0  0  0  0  0  0  0
    0.8250    0.0000    0.0000 C   0  0  0  0  0  0  0  0  0  0  0  0
    1.2375   -0.7145    0.0000 O   0  0  0  0  0  0  0  0  0  0  0  0
    0.0000    0.0000    0.0000 O   0  0  0  0  0  0  0  0  0  0  0  0
  1  2  1  0  0  0  0
  2  3  2  0  0  0  0
  2  4  1  0  0  0  0
  4  5  1  0  0  0  0
  4  6  2  0  0  0  0
M  END
> <DRUGBANK_ID>
DB03940

> <DRUG_GROUPS>
experimental

> <GENERIC_NAME>
Oxamic Acid

> <CHEMICAL_FORMULA>
C2H3NO3

> <MOLECULAR_WEIGHT>
89.0501

> <EXACT_MASS>
89.011292967

> <IUPAC_NAME>
carbamoylformic acid

> <IUPAC_TRADITIONAL_NAME>
oxamic acid

> <INCHI_IDENTIFIER>
InChI=1S/C2H3NO3/c3-1(4)2(5)6/h(H2,3,4)(H,5,6)

> <INCHI_KEY>
InChIKey=SOWBFZRMHSNYGE-UHFFFAOYSA-N

> <SMILES>
NC(=O)C(O)=O

> <JCHEM_ACCEPTOR_COUNT>
3

> <JCHEM_DONOR_COUNT>
2

> <JCHEM_ACIDIC_PKA>
2.49

> <JCHEM_BASIC_PKA>
-6.2

> <JCHEM_PHYSIOLOGICAL_CHARGE>
-1

> <ALOGPS_LOGP>
-1.4

> <JCHEM_LOGP>
-1.1

> <ALOGPS_LOGS>
0.08

> <JCHEM_POLARIZABILITY>
6.65

> <JCHEM_POLAR_SURFACE_AREA>
80.39

> <JCHEM_REFRACTIVITY>
16.26

> <JCHEM_ROTATABLE_BOND_COUNT>
1

> <ALOGPS_SOLUBILITY>
1.08e+02 g/l __ 

$$$$
