
  Mrv0541 02231217072D          

 23 24  0  0  0  0            999 V2000
   -2.1434   -1.2375    0.0000 O    0  5  0  0  0  0  0  0  0  0  0  0
   -1.4289   -1.6500    0.0000 N    0  3  0  0  0  0  0  0  0  0  0  0
   -0.7145   -1.2375    0.0000 O    0  0  0  0  0  0  0  0  0  0  0  0
   -1.4289   -2.4750    0.0000 C    0  0  0  0  0  0  0  0  0  0  0  0
   -0.7145   -2.8875    0.0000 C    0  0  0  0  0  0  0  0  0  0  0  0
   -0.7145   -3.7125    0.0000 C    0  0  0  0  0  0  0  0  0  0  0  0
   -1.4289   -4.1250    0.0000 C    0  0  0  0  0  0  0  0  0  0  0  0
   -1.4289   -4.9500    0.0000 N    0  0  0  0  0  0  0  0  0  0  0  0
   -0.7145   -5.3625    0.0000 N    0  0  0  0  0  0  0  0  0  0  0  0
   -0.7145   -6.1875    0.0000 C    0  0  0  0  0  0  0  0  0  0  0  0
   -1.4289   -6.6000    0.0000 C    0  0  0  0  0  0  0  0  0  0  0  0
   -1.4289   -7.4250    0.0000 Cl   0  0  0  0  0  0  0  0  0  0  0  0
    0.0000   -6.6000    0.0000 C    0  0  0  0  0  0  0  0  0  0  0  0
    0.7145   -6.1875    0.0000 C    0  0  0  0  0  0  0  0  0  0  0  0
    1.4289   -6.6000    0.0000 C    0  0  0  0  0  0  0  0  0  0  0  0
    1.4289   -7.4250    0.0000 C    0  0  0  0  0  0  0  0  0  0  0  0
    0.7145   -7.8375    0.0000 C    0  0  0  0  0  0  0  0  0  0  0  0
    0.0000   -7.4250    0.0000 C    0  0  0  0  0  0  0  0  0  0  0  0
   -2.1434   -3.7125    0.0000 C    0  0  0  0  0  0  0  0  0  0  0  0
   -2.1434   -2.8875    0.0000 C    0  0  0  0  0  0  0  0  0  0  0  0
    0.0000   -4.1250    0.0000 N    0  3  0  0  0  0  0  0  0  0  0  0
    0.0000   -4.9500    0.0000 O    0  5  0  0  0  0  0  0  0  0  0  0
    0.7145   -3.7125    0.0000 O    0  0  0  0  0  0  0  0  0  0  0  0
  1  2  1  0  0  0  0
  2  3  2  0  0  0  0
  2  4  1  0  0  0  0
  4  5  2  0  0  0  0
  5  6  1  0  0  0  0
  6  7  2  0  0  0  0
  7  8  1  0  0  0  0
  8  9  1  0  0  0  0
  9 10  2  0  0  0  0
 10 11  1  0  0  0  0
 11 12  1  0  0  0  0
 10 13  1  0  0  0  0
 13 14  2  0  0  0  0
 14 15  1  0  0  0  0
 15 16  2  0  0  0  0
 16 17  1  0  0  0  0
 17 18  2  0  0  0  0
 13 18  1  0  0  0  0
  7 19  1  0  0  0  0
 19 20  2  0  0  0  0
  4 20  1  0  0  0  0
  6 21  1  0  0  0  0
 21 22  1  0  0  0  0
 21 23  2  0  0  0  0
M  END
> <DRUGBANK_ID>
DB03701

> <DRUG_GROUPS>
experimental

> <GENERIC_NAME>
Vanoxerine

> <SYNONYMS>


> <CHEMICAL_FORMULA>
C14H11ClN4O4

> <MOLECULAR_WEIGHT>
334.715

> <EXACT_MASS>
334.046882567

> <IUPAC_NAME>
(Z)-1-(2-chloro-1-phenylethylidene)-2-(2,4-dinitrophenyl)hydrazine

> <IUPAC_TRADITIONAL_NAME>
vanoxerine

> <INCHI_IDENTIFIER>
InChI=1S/C14H11ClN4O4/c15-9-13(10-4-2-1-3-5-10)17-16-12-7-6-11(18(20)21)8-14(12)19(22)23/h1-8,16H,9H2/b17-13+

> <INCHI_KEY>
InChIKey=HNLCJXKVYWWDTN-GHRIWEEISA-N

> <SMILES>
[O-][N+](=O)C1=CC(=C(N\N=C(/CCl)C2=CC=CC=C2)C=C1)[N+]([O-])=O

> <JCHEM_ACCEPTOR_COUNT>
6

> <JCHEM_DONOR_COUNT>
1

> <JCHEM_ACIDIC_PKA>
12

> <JCHEM_BASIC_PKA>
2.98

> <JCHEM_PHYSIOLOGICAL_CHARGE>
0

> <ALOGPS_LOGP>
4.49

> <JCHEM_LOGP>
4.71

> <ALOGPS_LOGS>
-5.2

> <JCHEM_POLARIZABILITY>
31.01

> <JCHEM_POLAR_SURFACE_AREA>
116.03

> <JCHEM_REFRACTIVITY>
87.6

> <JCHEM_ROTATABLE_BOND_COUNT>
6

> <ALOGPS_SOLUBILITY>
2.19e-03 g/l __ 

$$$$
