
  Mrv0541 02231216472D          

 22 23  0  0  1  0            999 V2000
    1.3222    5.5902    0.0000 N   0  0  0  0  0  0  0  0  0  0  0  0
    1.3222    4.7652    0.0000 C   0  0  0  0  0  0  0  0  0  0  0  0
    0.6078    4.3527    0.0000 O   0  0  0  0  0  0  0  0  0  0  0  0
    2.0367    4.3527    0.0000 C   0  0  0  0  0  0  0  0  0  0  0  0
    2.7512    4.7652    0.0000 C   0  0  0  0  0  0  0  0  0  0  0  0
    3.4656    4.3527    0.0000 C   0  0  0  0  0  0  0  0  0  0  0  0
    3.4656    3.5277    0.0000 C   0  0  0  0  0  0  0  0  0  0  0  0
    2.7512    3.1152    0.0000 N   0  3  0  0  0  0  0  0  0  0  0  0
    2.0367    3.5277    0.0000 C   0  0  0  0  0  0  0  0  0  0  0  0
    2.7512    2.2902    0.0000 C   0  0  2  0  0  0  0  0  0  0  0  0
    3.4186    1.8053    0.0000 O   0  0  0  0  0  0  0  0  0  0  0  0
    3.1637    1.0206    0.0000 C   0  0  1  0  0  0  0  0  0  0  0  0
    3.6486    0.3532    0.0000 C   0  0  0  0  0  0  0  0  0  0  0  0
    3.3130   -0.4005    0.0000 O   0  0  0  0  0  0  0  0  0  0  0  0
    3.7980   -1.0679    0.0000 P   0  0  0  0  0  0  0  0  0  0  0  0
    4.2829   -1.7354    0.0000 O   0  0  0  0  0  0  0  0  0  0  0  0
    3.1305   -1.5528    0.0000 O   0  0  0  0  0  0  0  0  0  0  0  0
    4.4654   -0.5830    0.0000 O   0  0  0  0  0  0  0  0  0  0  0  0
    2.3387    1.0206    0.0000 C   0  0  2  0  0  0  0  0  0  0  0  0
    1.8538    0.3532    0.0000 O   0  0  0  0  0  0  0  0  0  0  0  0
    2.0837    1.8053    0.0000 C   0  0  1  0  0  0  0  0  0  0  0  0
    1.2991    2.0602    0.0000 O   0  0  0  0  0  0  0  0  0  0  0  0
  1  2  1  0  0  0  0
  2  3  2  0  0  0  0
  2  4  1  0  0  0  0
  4  5  2  0  0  0  0
  5  6  1  0  0  0  0
  6  7  2  0  0  0  0
  7  8  1  0  0  0  0
  8  9  2  0  0  0  0
  4  9  1  0  0  0  0
 10  8  1  6  0  0  0
 10 11  1  0  0  0  0
 11 12  1  0  0  0  0
 12 13  1  1  0  0  0
 13 14  1  0  0  0  0
 14 15  1  0  0  0  0
 15 16  1  0  0  0  0
 15 17  1  0  0  0  0
 15 18  2  0  0  0  0
 12 19  1  0  0  0  0
 19 20  1  6  0  0  0
 19 21  1  0  0  0  0
 10 21  1  0  0  0  0
 21 22  1  1  0  0  0
M  END
> <DRUGBANK_ID>
DB03227

> <DRUG_GROUPS>
experimental

> <GENERIC_NAME>
Nicotinamide Mononucleotide

> <CHEMICAL_FORMULA>
C11H16N2O8P

> <MOLECULAR_WEIGHT>
335.2271

> <EXACT_MASS>
335.06442701

> <IUPAC_NAME>
3-carbamoyl-1-[(2R,3R,4R,5S)-3,4-dihydroxy-5-[(phosphonooxy)methyl]oxolan-2-yl]-1$l^{5}-pyridin-1-ylium

> <IUPAC_TRADITIONAL_NAME>
3-carbamoyl-1-[(2R,3R,4R,5S)-3,4-dihydroxy-5-[(phosphonooxy)methyl]oxolan-2-yl]-1$l^{5}-pyridin-1-ylium

> <INCHI_IDENTIFIER>
InChI=1S/C11H15N2O8P/c12-10(16)6-2-1-3-13(4-6)11-9(15)8(14)7(21-11)5-20-22(17,18)19/h1-4,7-9,11,14-15H,5H2,(H3-,12,16,17,18,19)/p+1/t7-,8-,9+,11+/m0/s1

> <INCHI_KEY>
InChIKey=DAYLJWODMCOQEW-WYOJIJJFSA-O

> <SMILES>
NC(=O)C1=CC=C[N+](=C1)[C@@H]1O[C@@H](COP(O)(O)=O)[C@H](O)[C@H]1O

> <JCHEM_ACCEPTOR_COUNT>
7

> <JCHEM_DONOR_COUNT>
5

> <JCHEM_ACIDIC_PKA>
1.21

> <JCHEM_BASIC_PKA>
-2.2

> <JCHEM_PHYSIOLOGICAL_CHARGE>
-1

> <ALOGPS_LOGP>
-1.5

> <JCHEM_LOGP>
-6.2

> <ALOGPS_LOGS>
-2.3

> <JCHEM_POLARIZABILITY>
29.18

> <JCHEM_POLAR_SURFACE_AREA>
163.42

> <JCHEM_REFRACTIVITY>
71.71

> <JCHEM_ROTATABLE_BOND_COUNT>
5

> <ALOGPS_SOLUBILITY>
1.80e+00 g/l __ 

$$$$
