
  Mrv0541 02231216412D          

 10  9  0  0  1  0            999 V2000
    4.6184    2.6664    0.0000 N   0  0  0  0  0  0  0  0  0  0  0  0
    4.6184    1.8414    0.0000 C   0  0  1  0  0  0  0  0  0  0  0  0
    3.9039    1.4289    0.0000 C   0  0  0  0  0  0  0  0  0  0  0  0
    3.1895    1.8414    0.0000 C   0  0  0  0  0  0  0  0  0  0  0  0
    2.4750    1.4289    0.0000 C   0  0  0  0  0  0  0  0  0  0  0  0
    1.7605    1.8414    0.0000 O   0  0  0  0  0  0  0  0  0  0  0  0
    2.4750    0.6039    0.0000 O   0  0  0  0  0  0  0  0  0  0  0  0
    5.3329    1.4289    0.0000 C   0  0  0  0  0  0  0  0  0  0  0  0
    6.0474    1.8414    0.0000 N   0  0  0  0  0  0  0  0  0  0  0  0
    5.3329    0.6039    0.0000 O   0  0  0  0  0  0  0  0  0  0  0  0
  2  1  1  6  0  0  0
  2  3  1  0  0  0  0
  3  4  1  0  0  0  0
  4  5  1  0  0  0  0
  5  6  1  0  0  0  0
  5  7  2  0  0  0  0
  2  8  1  0  0  0  0
  8  9  1  0  0  0  0
  8 10  2  0  0  0  0
M  END
> <DRUGBANK_ID>
DB03091

> <DRUG_GROUPS>
experimental

> <GENERIC_NAME>
4-Amido-4-Carbamoyl-Butyric Acid

> <CHEMICAL_FORMULA>
C5H10N2O3

> <MOLECULAR_WEIGHT>
146.1445

> <EXACT_MASS>
146.069142196

> <IUPAC_NAME>
(4S)-4-amino-4-carbamoylbutanoic acid

> <IUPAC_TRADITIONAL_NAME>
(4S)-4-amino-4-carbamoylbutanoic acid

> <INCHI_IDENTIFIER>
InChI=1S/C5H10N2O3/c6-3(5(7)10)1-2-4(8)9/h3H,1-2,6H2,(H2,7,10)(H,8,9)/t3-/m0/s1

> <INCHI_KEY>
InChIKey=AEFLONBTGZFSGQ-VKHMYHEASA-N

> <SMILES>
N[C@@H](CCC(O)=O)C(N)=O

> <JCHEM_ACCEPTOR_COUNT>
4

> <JCHEM_DONOR_COUNT>
3

> <JCHEM_ACIDIC_PKA>
4.06

> <JCHEM_BASIC_PKA>
8.46

> <JCHEM_PHYSIOLOGICAL_CHARGE>
0

> <ALOGPS_LOGP>
-3.5

> <JCHEM_LOGP>
-4

> <ALOGPS_LOGS>
-0.26

> <JCHEM_POLARIZABILITY>
13.85

> <JCHEM_POLAR_SURFACE_AREA>
106.41

> <JCHEM_REFRACTIVITY>
33.11

> <JCHEM_ROTATABLE_BOND_COUNT>
4

> <ALOGPS_SOLUBILITY>
7.97e+01 g/l __ 

$$$$
