
  Mrv0541 02231216562D          

 32 31  0  0  1  0            999 V2000
   14.1355    8.1612    0.0000 C   0  0  0  0  0  0  0  0  0  0  0  0
   14.8500    8.5737    0.0000 C   0  0  0  0  0  0  0  0  0  0  0  0
   15.5645    8.1612    0.0000 C   0  0  0  0  0  0  0  0  0  0  0  0
   16.2789    8.5737    0.0000 C   0  0  0  0  0  0  0  0  0  0  0  0
   16.9934    8.1612    0.0000 C   0  0  0  0  0  0  0  0  0  0  0  0
   17.7079    8.5737    0.0000 C   0  0  0  0  0  0  0  0  0  0  0  0
   18.4224    8.1612    0.0000 C   0  0  0  0  0  0  0  0  0  0  0  0
   19.1368    8.5737    0.0000 C   0  0  0  0  0  0  0  0  0  0  0  0
   19.8513    8.1612    0.0000 C   0  0  0  0  0  0  0  0  0  0  0  0
   20.5658    8.5737    0.0000 C   0  0  0  0  0  0  0  0  0  0  0  0
   21.2802    8.1612    0.0000 C   0  0  0  0  0  0  0  0  0  0  0  0
   21.9947    8.5737    0.0000 C   0  0  0  0  0  0  0  0  0  0  0  0
   22.7092    8.1612    0.0000 C   0  0  0  0  0  0  0  0  0  0  0  0
   23.4237    8.5737    0.0000 C   0  0  0  0  0  0  0  0  0  0  0  0
   24.1381    8.1612    0.0000 C   0  0  0  0  0  0  0  0  0  0  0  0
   24.8526    8.5737    0.0000 C   0  0  0  0  0  0  0  0  0  0  0  0
   24.8526    9.3987    0.0000 O   0  0  0  0  0  0  0  0  0  0  0  0
   25.5671    8.1612    0.0000 O   0  0  0  0  0  0  0  0  0  0  0  0
   26.2815    8.5737    0.0000 C   0  0  0  0  0  0  0  0  0  0  0  0
   26.9960    8.1612    0.0000 C   0  0  2  0  0  0  0  0  0  0  0  0
   26.9960    7.3362    0.0000 O   0  0  0  0  0  0  0  0  0  0  0  0
   27.7105    8.5737    0.0000 C   0  0  0  0  0  0  0  0  0  0  0  0
   28.4249    8.1612    0.0000 O   0  0  0  0  0  0  0  0  0  0  0  0
   29.1394    8.5737    0.0000 P   0  0  2  0  0  0  0  0  0  0  0  0
   29.5519    7.8592    0.0000 O   0  5  0  0  0  0  0  0  0  0  0  0
   28.7269    9.2881    0.0000 O   0  0  0  0  0  0  0  0  0  0  0  0
   29.8539    8.9862    0.0000 O   0  0  0  0  0  0  0  0  0  0  0  0
   30.5684    8.5737    0.0000 C   0  0  0  0  0  0  0  0  0  0  0  0
   31.2828    8.9862    0.0000 C   0  0  2  0  0  0  0  0  0  0  0  0
   31.2828    9.8112    0.0000 O   0  0  0  0  0  0  0  0  0  0  0  0
   31.9973    8.5737    0.0000 C   0  0  0  0  0  0  0  0  0  0  0  0
   32.7118    8.9862    0.0000 O   0  0  0  0  0  0  0  0  0  0  0  0
  1  2  1  0  0  0  0
  2  3  1  0  0  0  0
  3  4  1  0  0  0  0
  4  5  1  0  0  0  0
  5  6  1  0  0  0  0
  6  7  1  0  0  0  0
  7  8  1  0  0  0  0
  8  9  1  0  0  0  0
  9 10  1  0  0  0  0
 10 11  1  0  0  0  0
 11 12  1  0  0  0  0
 12 13  1  0  0  0  0
 13 14  1  0  0  0  0
 14 15  1  0  0  0  0
 15 16  1  0  0  0  0
 16 17  2  0  0  0  0
 16 18  1  0  0  0  0
 18 19  1  0  0  0  0
 19 20  1  0  0  0  0
 20 21  1  1  0  0  0
 20 22  1  0  0  0  0
 22 23  1  0  0  0  0
 24 23  1  6  0  0  0
 24 25  1  1  0  0  0
 24 26  2  0  0  0  0
 24 27  1  0  0  0  0
 27 28  1  0  0  0  0
 28 29  1  0  0  0  0
 29 30  1  6  0  0  0
 29 31  1  0  0  0  0
 31 32  1  0  0  0  0
M  END
> <DRUGBANK_ID>
DB03438

> <DRUG_GROUPS>
experimental

> <GENERIC_NAME>
Lysophosphatidylglycerol

> <CHEMICAL_FORMULA>
C22H44O9P

> <MOLECULAR_WEIGHT>
483.5531

> <EXACT_MASS>
483.272294518

> <IUPAC_NAME>
(2S)-3-{[(R)-((2R)-2,3-dihydroxypropyl phosphonato)]oxy}-2-hydroxypropyl hexadecanoate

> <IUPAC_TRADITIONAL_NAME>
lysophosphatidylglycerol

> <INCHI_IDENTIFIER>
InChI=1S/C22H45O9P/c1-2-3-4-5-6-7-8-9-10-11-12-13-14-15-22(26)29-17-21(25)19-31-32(27,28)30-18-20(24)16-23/h20-21,23-25H,2-19H2,1H3,(H,27,28)/p-1/t20-,21+/m1/s1

> <INCHI_KEY>
InChIKey=BVJSKAUUFXBDOB-RTWAWAEBSA-M

> <SMILES>
CCCCCCCCCCCCCCCC(=O)OC[C@H](O)CO[P@]([O-])(=O)OC[C@H](O)CO

> <JCHEM_ACCEPTOR_COUNT>
6

> <JCHEM_DONOR_COUNT>
3

> <JCHEM_ACIDIC_PKA>
1.89

> <JCHEM_BASIC_PKA>
-3

> <JCHEM_PHYSIOLOGICAL_CHARGE>
-1

> <ALOGPS_LOGP>
3.57

> <JCHEM_LOGP>
4.02

> <ALOGPS_LOGS>
-5.2

> <JCHEM_POLARIZABILITY>
54.87

> <JCHEM_POLAR_SURFACE_AREA>
145.58

> <JCHEM_REFRACTIVITY>
120.6

> <JCHEM_ROTATABLE_BOND_COUNT>
24

> <ALOGPS_SOLUBILITY>
3.29e-03 g/l __ 

$$$$
