
  Mrv0541 02231217042D          

 15 15  0  0  1  0            999 V2000
    1.4289    2.4750    0.0000 N   0  0  0  0  0  0  0  0  0  0  0  0
    2.1434    2.0625    0.0000 C   0  0  1  0  0  0  0  0  0  0  0  0
    2.1434    1.2375    0.0000 C   0  0  0  0  0  0  0  0  0  0  0  0
    1.4289    0.8250    0.0000 C   0  0  0  0  0  0  0  0  0  0  0  0
    1.4289    0.0000    0.0000 C   0  0  0  0  0  0  0  0  0  0  0  0
    0.7145   -0.4125    0.0000 C   0  0  0  0  0  0  0  0  0  0  0  0
    0.7145   -1.2375    0.0000 N   0  0  0  0  0  0  0  0  0  0  0  0
    0.0000    0.0000    0.0000 C   0  0  0  0  0  0  0  0  0  0  0  0
   -0.7145   -0.4125    0.0000 O   0  0  0  0  0  0  0  0  0  0  0  0
    0.0000    0.8250    0.0000 C   0  0  0  0  0  0  0  0  0  0  0  0
    0.7145    1.2375    0.0000 C   0  0  0  0  0  0  0  0  0  0  0  0
    0.7145    2.0625    0.0000 O   0  0  0  0  0  0  0  0  0  0  0  0
    2.8579    2.4750    0.0000 C   0  0  0  0  0  0  0  0  0  0  0  0
    2.8579    3.3000    0.0000 O   0  0  0  0  0  0  0  0  0  0  0  0
    3.5724    2.0625    0.0000 O   0  0  0  0  0  0  0  0  0  0  0  0
  2  1  1  6  0  0  0
  2  3  1  0  0  0  0
  3  4  1  0  0  0  0
  4  5  2  0  0  0  0
  5  6  1  0  0  0  0
  6  7  2  0  0  0  0
  6  8  1  0  0  0  0
  8  9  1  0  0  0  0
  8 10  2  0  0  0  0
 10 11  1  0  0  0  0
  4 11  1  0  0  0  0
 11 12  2  0  0  0  0
  2 13  1  0  0  0  0
 13 14  1  0  0  0  0
 13 15  2  0  0  0  0
M  END
> <DRUGBANK_ID>
DB03631

> <DRUG_GROUPS>
experimental

> <GENERIC_NAME>
3-(4-Hydroxy-3-Imino-6-Oxo-Cyclohexa-1,4-Dienyl)-Alanine

> <CHEMICAL_FORMULA>
C9H10N2O4

> <MOLECULAR_WEIGHT>
210.1867

> <EXACT_MASS>
210.064056818

> <IUPAC_NAME>
(2S)-2-amino-3-(4-hydroxy-3-imino-6-oxocyclohexa-1,4-dien-1-yl)propanoic acid

> <IUPAC_TRADITIONAL_NAME>
(2S)-2-amino-3-(4-hydroxy-3-imino-6-oxocyclohexa-1,4-dien-1-yl)propanoic acid

> <INCHI_IDENTIFIER>
InChI=1S/C9H10N2O4/c10-5-1-4(2-6(11)9(14)15)7(12)3-8(5)13/h1,3,6,10,13H,2,11H2,(H,14,15)/t6-/m0/s1

> <INCHI_KEY>
InChIKey=FKLZKBKFGLLJJV-LURJTMIESA-N

> <SMILES>
N[C@@H](CC1=CC(=N)C(O)=CC1=O)C(O)=O

> <JCHEM_ACCEPTOR_COUNT>
6

> <JCHEM_DONOR_COUNT>
4

> <JCHEM_ACIDIC_PKA>
1.75

> <JCHEM_BASIC_PKA>
9.45

> <JCHEM_PHYSIOLOGICAL_CHARGE>
0

> <ALOGPS_LOGP>
-2.5

> <JCHEM_LOGP>
-3.8

> <ALOGPS_LOGS>
-2.4

> <JCHEM_POLARIZABILITY>
19.53

> <JCHEM_POLAR_SURFACE_AREA>
124.47

> <JCHEM_REFRACTIVITY>
63.84

> <JCHEM_ROTATABLE_BOND_COUNT>
3

> <ALOGPS_SOLUBILITY>
8.20e-01 g/l __ 

$$$$
