
  Mrv0541 02231217052D          

  9  8  0  0  0  0            999 V2000
   -0.1914   -0.7145    0.0000 O   0  0  0  0  0  0  0  0  0  0  0  0
    0.5230   -1.1270    0.0000 N   0  0  0  0  0  0  0  0  0  0  0  0
    1.2375   -0.7145    0.0000 C   0  0  0  0  0  0  0  0  0  0  0  0
    1.2375    0.1105    0.0000 O   0  0  0  0  0  0  0  0  0  0  0  0
    1.9520   -1.1270    0.0000 C   0  0  0  0  0  0  0  0  0  0  0  0
    2.6664   -0.7145    0.0000 P   0  0  0  0  0  0  0  0  0  0  0  0
    3.3809   -0.3020    0.0000 O   0  0  0  0  0  0  0  0  0  0  0  0
    3.0789   -1.4289    0.0000 O   0  0  0  0  0  0  0  0  0  0  0  0
    2.2539    0.0000    0.0000 O   0  0  0  0  0  0  0  0  0  0  0  0
  1  2  1  0  0  0  0
  2  3  1  0  0  0  0
  3  4  2  0  0  0  0
  3  5  1  0  0  0  0
  5  6  1  0  0  0  0
  6  7  1  0  0  0  0
  6  8  1  0  0  0  0
  6  9  2  0  0  0  0
M  END
> <DRUGBANK_ID>
DB03645

> <DRUG_GROUPS>
experimental

> <GENERIC_NAME>
Phosphonoacetohydroxamic Acid

> <CHEMICAL_FORMULA>
C2H6NO5P

> <MOLECULAR_WEIGHT>
155.0465

> <EXACT_MASS>
154.998358819

> <IUPAC_NAME>
[(hydroxycarbamoyl)methyl]phosphonic acid

> <IUPAC_TRADITIONAL_NAME>
(hydroxycarbamoyl)methylphosphonic acid

> <INCHI_IDENTIFIER>
InChI=1S/C2H6NO5P/c4-2(3-5)1-9(6,7)8/h5H,1H2,(H,3,4)(H2,6,7,8)

> <INCHI_KEY>
InChIKey=LDKRAXXVBWHMRH-UHFFFAOYSA-N

> <SMILES>
ONC(=O)CP(O)(O)=O

> <JCHEM_ACCEPTOR_COUNT>
5

> <JCHEM_DONOR_COUNT>
4

> <JCHEM_ACIDIC_PKA>
1.66

> <JCHEM_BASIC_PKA>
-5.5

> <JCHEM_PHYSIOLOGICAL_CHARGE>
-1

> <ALOGPS_LOGP>
-1.3

> <JCHEM_LOGP>
-2.5

> <ALOGPS_LOGS>
-0.91

> <JCHEM_POLARIZABILITY>
11

> <JCHEM_POLAR_SURFACE_AREA>
106.86

> <JCHEM_REFRACTIVITY>
27.22

> <JCHEM_ROTATABLE_BOND_COUNT>
2

> <ALOGPS_SOLUBILITY>
1.90e+01 g/l __ 

$$$$
