
  Mrv0541 02231217032D          

 92102  0  0  1  0            999 V2000
    1.9204    6.4716    0.0000 C    0  0  0  0  0  0  0  0  0  0  0  0
    1.1271    6.6981    0.0000 C    0  0  2  0  0  0  0  0  0  0  0  0
    0.5343    6.1243    0.0000 C    0  0  0  0  0  0  0  0  0  0  0  0
    0.7349    5.3240    0.0000 N    0  0  0  0  0  0  0  0  0  0  0  0
    0.1421    4.7503    0.0000 C    0  0  0  0  0  0  0  0  0  0  0  0
   -0.6512    4.9767    0.0000 O    0  0  0  0  0  0  0  0  0  0  0  0
    0.3426    3.9500    0.0000 C    0  0  0  0  0  0  0  0  0  0  0  0
   -0.2502    3.3762    0.0000 C    0  0  0  0  0  0  0  0  0  0  0  0
   -0.0497    2.5760    0.0000 C    0  0  2  0  0  0  0  0  0  0  0  0
    0.7252    2.8590    0.0000 C    0  0  0  0  0  0  0  0  0  0  0  0
   -0.8665    2.4602    0.0000 C    0  0  1  0  0  0  0  0  0  0  0  0
   -1.4403    3.0530    0.0000 C    0  0  0  0  0  0  0  0  0  0  0  0
   -1.2138    3.8463    0.0000 C    0  0  0  0  0  0  0  0  0  0  0  0
   -1.7876    4.4391    0.0000 N    0  0  0  0  0  0  0  0  0  0  0  0
   -0.4136    4.0468    0.0000 O    0  0  0  0  0  0  0  0  0  0  0  0
   -1.0088    1.6476    0.0000 C    0  0  0  0  0  0  0  0  0  0  0  0
   -0.2800    1.2611    0.0000 N    0  3  0  0  0  0  0  0  0  0  0  0
    0.3128    1.8349    0.0000 C    0  0  0  0  0  0  0  0  0  0  0  0
    1.3180    1.4876    0.0000 C    0  0  0  0  0  0  0  0  0  0  0  0
    1.7971    2.1592    0.0000 C    0  0  0  0  0  0  0  0  0  0  0  0
    1.8267    0.8381    0.0000 C    0  0  0  0  0  0  0  0  0  0  0  0
    1.3662    0.1536    0.0000 N    0  3  0  0  0  0  0  0  0  0  0  0
    1.8748   -0.4960    0.0000 C    0  0  0  0  0  0  0  0  0  0  0  0
    1.4244   -1.4593    0.0000 C    0  0  0  0  0  0  0  0  0  0  0  0
    0.7252   -1.8973    0.0000 C    0  0  0  0  0  0  0  0  0  0  0  0
    0.0926   -1.3678    0.0000 N    0  3  0  0  0  0  0  0  0  0  0  0
   -0.6065   -1.8058    0.0000 C    0  0  0  0  0  0  0  0  0  0  0  0
   -1.5175   -1.2571    0.0000 C    0  0  0  0  0  0  0  0  0  0  0  0
   -2.1257   -1.8145    0.0000 C    0  0  0  0  0  0  0  0  0  0  0  0
   -1.8800   -0.5160    0.0000 C    0  0  0  0  0  0  0  0  0  0  0  0
   -1.2872    0.0578    0.0000 N    0  3  0  0  0  0  0  0  0  0  0  0
   -1.6498    0.7989    0.0000 C    0  0  1  0  0  0  0  0  0  0  0  0
   -2.0685    1.5097    0.0000 C    0  0  0  0  0  0  0  0  0  0  0  0
   -2.4666    0.6831    0.0000 C    0  0  2  0  0  0  0  0  0  0  0  0
   -2.4964    1.5076    0.0000 C    0  0  0  0  0  0  0  0  0  0  0  0
   -3.2897    0.7397    0.0000 C    0  0  0  0  0  0  0  0  0  0  0  0
   -3.6522    1.4808    0.0000 C    0  0  0  0  0  0  0  0  0  0  0  0
   -4.4752    1.5374    0.0000 N    0  0  0  0  0  0  0  0  0  0  0  0
   -3.1916    2.1653    0.0000 O    0  0  0  0  0  0  0  0  0  0  0  0
   -2.6089   -0.1295    0.0000 C    0  0  2  0  0  0  0  0  0  0  0  0
   -3.3500   -0.4920    0.0000 C    0  0  0  0  0  0  0  0  0  0  0  0
   -3.4066   -1.3151    0.0000 C    0  0  0  0  0  0  0  0  0  0  0  0
   -4.1477   -1.6776    0.0000 C    0  0  0  0  0  0  0  0  0  0  0  0
   -4.8322   -1.2171    0.0000 N    0  0  0  0  0  0  0  0  0  0  0  0
   -4.2043   -2.5007    0.0000 O    0  0  0  0  0  0  0  0  0  0  0  0
   -0.0271    0.0262    0.0000 Co   0  0  0  0  0  0  0  0  0  0  0  0
    0.0435   -0.7958    0.0000 C    0  0  0  0  0  0  0  0  0  0  0  0
   -0.4060   -2.6060    0.0000 C    0  0  2  0  0  0  0  0  0  0  0  0
   -1.2228   -2.7218    0.0000 C    0  0  0  0  0  0  0  0  0  0  0  0
   -0.3762   -3.4305    0.0000 C    0  0  0  0  0  0  0  0  0  0  0  0
   -1.0754   -3.8685    0.0000 C    0  0  0  0  0  0  0  0  0  0  0  0
   -1.0456   -4.6930    0.0000 N    0  0  0  0  0  0  0  0  0  0  0  0
   -1.8042   -3.4820    0.0000 O    0  0  0  0  0  0  0  0  0  0  0  0
    0.4171   -2.6626    0.0000 C    0  0  1  0  0  0  0  0  0  0  0  0
    0.8551   -3.3617    0.0000 C    0  0  0  0  0  0  0  0  0  0  0  0
    1.6795   -3.3320    0.0000 C    0  0  0  0  0  0  0  0  0  0  0  0
    2.0660   -2.6031    0.0000 C    0  0  0  0  0  0  0  0  0  0  0  0
    2.8905   -2.5734    0.0000 N    0  0  0  0  0  0  0  0  0  0  0  0
    1.6280   -1.9040    0.0000 O    0  0  0  0  0  0  0  0  0  0  0  0
    2.6498   -0.2129    0.0000 C    0  0  0  0  0  0  0  0  0  0  0  0
    3.4666   -0.0971    0.0000 C    0  0  0  0  0  0  0  0  0  0  0  0
    2.8503   -1.0132    0.0000 C    0  0  0  0  0  0  0  0  0  0  0  0
    2.6200    0.6116    0.0000 C    0  0  2  0  0  0  0  0  0  0  0  0
    3.2695    1.1203    0.0000 C    0  0  0  0  0  0  0  0  0  0  0  0
    4.0348    0.8121    0.0000 C    0  0  0  0  0  0  0  0  0  0  0  0
    4.6843    1.3208    0.0000 C    0  0  0  0  0  0  0  0  0  0  0  0
    4.5686    2.1376    0.0000 N    0  0  0  0  0  0  0  0  0  0  0  0
    5.4496    1.0126    0.0000 O    0  0  0  0  0  0  0  0  0  0  0  0
    0.9266    7.4984    0.0000 O    0  0  0  0  0  0  0  0  0  0  0  0
    1.5194    8.0721    0.0000 P    0  0  2  0  0  0  0  0  0  0  0  0
    2.0932    7.4793    0.0000 O    0  0  0  0  0  0  0  0  0  0  0  0
    0.9456    8.6649    0.0000 O    0  0  0  0  0  0  0  0  0  0  0  0
    2.1122    8.6459    0.0000 O    0  0  0  0  0  0  0  0  0  0  0  0
    1.9117    9.4462    0.0000 C    0  0  1  0  0  0  0  0  0  0  0  0
    1.1464    9.7543    0.0000 C    0  0  2  0  0  0  0  0  0  0  0  0
    0.4473    9.3163    0.0000 C    0  0  0  0  0  0  0  0  0  0  0  0
   -0.2816    9.7028    0.0000 O    0  0  0  0  0  0  0  0  0  0  0  0
    1.2030   10.5774    0.0000 O    0  0  0  0  0  0  0  0  0  0  0  0
    2.0032   10.7779    0.0000 C    0  0  2  0  0  0  0  0  0  0  0  0
    2.4412   10.0788    0.0000 C    0  0  2  0  0  0  0  0  0  0  0  0
    3.2643   10.0222    0.0000 O    0  0  0  0  0  0  0  0  0  0  0  0
    2.3114   11.5432    0.0000 N    0  0  0  0  0  0  0  0  0  0  0  0
    3.1117   11.7437    0.0000 C    0  0  0  0  0  0  0  0  0  0  0  0
    3.1682   12.5668    0.0000 N    0  0  0  0  0  0  0  0  0  0  0  0
    2.4030   12.8749    0.0000 C    0  0  0  0  0  0  0  0  0  0  0  0
    1.8734   12.2423    0.0000 C    0  0  0  0  0  0  0  0  0  0  0  0
    1.0608   12.3846    0.0000 C    0  0  0  0  0  0  0  0  0  0  0  0
    0.7777   13.1596    0.0000 C    0  0  0  0  0  0  0  0  0  0  0  0
   -0.0349   13.3019    0.0000 C    0  0  0  0  0  0  0  0  0  0  0  0
    1.3073   13.7922    0.0000 C    0  0  0  0  0  0  0  0  0  0  0  0
    1.0242   14.5671    0.0000 C    0  0  0  0  0  0  0  0  0  0  0  0
    2.1199   13.6499    0.0000 C    0  0  0  0  0  0  0  0  0  0  0  0
  2  1  1  6  0  0  0
  2  3  1  0  0  0  0
  3  4  1  0  0  0  0
  4  5  1  0  0  0  0
  5  6  2  0  0  0  0
  5  7  1  0  0  0  0
  7  8  1  0  0  0  0
  9  8  1  1  0  0  0
  9 10  1  6  0  0  0
  9 11  1  0  0  0  0
 11 12  1  6  0  0  0
 12 13  1  0  0  0  0
 13 14  1  0  0  0  0
 13 15  2  0  0  0  0
 11 16  1  0  0  0  0
 16 17  2  0  0  0  0
 17 18  1  0  0  0  0
  9 18  1  0  0  0  0
 18 19  2  0  0  0  0
 19 20  1  0  0  0  0
 19 21  1  0  0  0  0
 21 22  2  0  0  0  0
 22 23  1  0  0  0  0
 23 24  2  0  0  0  0
 24 25  1  0  0  0  0
 25 26  2  0  0  0  0
 26 27  1  0  0  0  0
 27 28  2  0  0  0  0
 28 29  1  0  0  0  0
 28 30  1  0  0  0  0
 30 31  2  0  0  0  0
 31 32  1  0  0  0  0
 16 32  1  0  0  0  0
 32 33  1  1  0  0  0
 32 34  1  0  0  0  0
 34 35  1  6  0  0  0
 34 36  1  1  0  0  0
 36 37  1  0  0  0  0
 37 38  1  0  0  0  0
 37 39  2  0  0  0  0
 34 40  1  0  0  0  0
 30 40  1  0  0  0  0
 40 41  1  1  0  0  0
 41 42  1  0  0  0  0
 42 43  1  0  0  0  0
 43 44  1  0  0  0  0
 43 45  2  0  0  0  0
 31 46  1  0  0  0  0
 17 46  1  0  0  0  0
 22 46  1  0  0  0  0
 26 46  1  0  0  0  0
 46 47  1  0  0  0  0
 27 48  1  0  0  0  0
 48 49  1  6  0  0  0
 48 50  1  1  0  0  0
 50 51  1  0  0  0  0
 51 52  1  0  0  0  0
 51 53  2  0  0  0  0
 48 54  1  0  0  0  0
 25 54  1  0  0  0  0
 54 55  1  6  0  0  0
 55 56  1  0  0  0  0
 56 57  1  0  0  0  0
 57 58  1  0  0  0  0
 57 59  2  0  0  0  0
 23 60  1  0  0  0  0
 60 61  1  0  0  0  0
 60 62  1  0  0  0  0
 60 63  1  0  0  0  0
 21 63  1  0  0  0  0
 63 64  1  1  0  0  0
 64 65  1  0  0  0  0
 65 66  1  0  0  0  0
 66 67  1  0  0  0  0
 66 68  2  0  0  0  0
  2 69  1  0  0  0  0
 70 69  1  6  0  0  0
 70 71  1  1  0  0  0
 70 72  2  0  0  0  0
 70 73  1  0  0  0  0
 74 73  1  1  0  0  0
 74 75  1  0  0  0  0
 75 76  1  6  0  0  0
 76 77  1  0  0  0  0
 75 78  1  0  0  0  0
 78 79  1  0  0  0  0
 79 80  1  0  0  0  0
 74 80  1  0  0  0  0
 80 81  1  6  0  0  0
 79 82  1  1  0  0  0
 82 83  1  0  0  0  0
 83 84  2  0  0  0  0
 84 85  1  0  0  0  0
 85 86  2  0  0  0  0
 82 86  1  0  0  0  0
 86 87  1  0  0  0  0
 87 88  2  0  0  0  0
 88 89  1  0  0  0  0
 88 90  1  0  0  0  0
 90 91  1  0  0  0  0
 90 92  2  0  0  0  0
 85 92  1  0  0  0  0
M  END
> <DRUGBANK_ID>
DB03614

> <DRUG_GROUPS>
experimental

> <GENERIC_NAME>
Co-Methylcobalamin

> <CHEMICAL_FORMULA>
C63H91CoN13O14P

> <MOLECULAR_WEIGHT>
1344.3823

> <EXACT_MASS>
1343.587806391

> <IUPAC_NAME>
(3R,4R,5S,9R,10R,15S,19R,20R)-5,10,15-tris(2-carbamoylethyl)-4,9,20-tris(carbamoylmethyl)-19-(2-{[(2R)-2-[({[(2S,3R,4R,5R)-5-(5,6-dimethyl-1H-1,3-benzodiazol-1-yl)-4-hydroxy-2-(hydroxymethyl)oxolan-3-yl]oxy}(hydroxy)phosphoryl)oxy]propyl]carbamoyl}ethyl)-1,3,4,7,9,14,14,17,19-nonamethyl-2$l^{5},22$l^{5},23$l^{5},24$l^{5}-tetraaza-1-cobaltaoctacyclo[11.9.1.1^{1,8}.0^{2,6}.0^{3,21}.0^{16,23}.0^{18,22}.0^{11,24}]tetracosa-2(6),7,11(24),12,16(23),17,21-heptaene-2,22,23,24-tetrakis(ylium)

> <IUPAC_TRADITIONAL_NAME>
(3R,4R,5S,9R,10R,15S,19R,20R)-5,10,15-tris(2-carbamoylethyl)-4,9,20-tris(carbamoylmethyl)-19-(2-{[(2R)-2-({[(2S,3R,4R,5R)-5-(5,6-dimethyl-1,3-benzodiazol-1-yl)-4-hydroxy-2-(hydroxymethyl)oxolan-3-yl]oxy(hydroxy)phosphoryl}oxy)propyl]carbamoyl}ethyl)-1,3,4,7,9,14,14,17,19-nonamethyl-2$l^{5},22$l^{5},23$l^{5},24$l^{5}-tetraaza-1-cobaltaoctacyclo[11.9.1.1^{1,8}.0^{2,6}.0^{3,21}.0^{16,23}.0^{18,22}.0^{11,24}]tetracosa-2(6),7,11(24),12,16(23),17,21-heptaene-2,22,23,24-tetrakis(ylium)

> <INCHI_IDENTIFIER>
InChI=1S/C62H88N13O14P.CH3.Co/c1-29-20-39-40(21-30(29)2)75(28-70-39)57-52(84)53(41(27-76)87-57)89-90(85,86)88-31(3)26-69-49(83)18-19-59(8)37(22-46(66)80)56-62(11)61(10,25-48(68)82)36(14-17-45(65)79)51(74-62)33(5)55-60(9,24-47(67)81)34(12-15-43(63)77)38(71-55)23-42-58(6,7)35(13-16-44(64)78)50(72-42)32(4)54(59)73-56;;/h20-21,23,28,31,34-37,41,52-53,57,76,84H,12-19,22,24-27H2,1-11H3,(H2,63,77)(H2,64,78)(H2,65,79)(H2,66,80)(H2,67,81)(H2,68,82)(H,69,83)(H,85,86);1H3;/q;;+4/b42-23-,54-32-,55-33-;;/t31-,34+,35-,36-,37+,41+,52-,53+,57-,59-,60-,61-,62+;;/m1../s1

> <INCHI_KEY>
InChIKey=KRASSMNELXNLSH-WWSZORKHSA-N

> <SMILES>
C[C@H](CNC(=O)CC[C@]1(C)[C@@H](CC(N)=O)C2=[N+]3C1=C(C)C1=[N+]4C(=CC5=[N+]6C(=C(C)C7=[N+]([C@]2(C)[C@](C)(CC(N)=O)[C@@H]7CCC(N)=O)[Co]346C)[C@](C)(CC(N)=O)[C@H]5CCC(N)=O)C(C)(C)[C@@H]1CCC(N)=O)O[P@](O)(=O)O[C@H]1[C@H](CO)O[C@H]([C@@H]1O)N1C=NC2=C1C=C(C)C(C)=C2

> <JCHEM_ACCEPTOR_COUNT>
13

> <JCHEM_DONOR_COUNT>
10

> <JCHEM_ACIDIC_PKA>
1.85

> <JCHEM_BASIC_PKA>
6

> <JCHEM_PHYSIOLOGICAL_CHARGE>
3

> <ALOGPS_LOGP>
0.48

> <JCHEM_LOGP>
-14

> <ALOGPS_LOGS>
-6

> <JCHEM_POLARIZABILITY>
138.04

> <JCHEM_POLAR_SURFACE_AREA>
422.95

> <JCHEM_REFRACTIVITY>
345.63

> <JCHEM_ROTATABLE_BOND_COUNT>
26

> <ALOGPS_SOLUBILITY>
1.42e-03 g/l __ 

$$$$
