
  Mrv0541 02231217062D          

 28 32  0  0  1  0            999 V2000
    4.5466   -0.5086    0.0000 C   0  0  0  0  0  0  0  0  0  0  0  0
    4.8269    0.2673    0.0000 C   0  0  2  0  0  0  0  0  0  0  0  0
    5.3587   -0.3634    0.0000 C   0  0  0  0  0  0  0  0  0  0  0  0
    6.1708   -0.2182    0.0000 C   0  0  0  0  0  0  0  0  0  0  0  0
    6.4511    0.5577    0.0000 C   0  0  2  0  0  0  0  0  0  0  0  0
    7.2632    0.7029    0.0000 O   0  0  0  0  0  0  0  0  0  0  0  0
    5.9193    1.1884    0.0000 C   0  0  0  0  0  0  0  0  0  0  0  0
    5.1072    1.0432    0.0000 C   0  0  2  0  0  0  0  0  0  0  0  0
    4.5754    1.6739    0.0000 C   0  0  0  0  0  0  0  0  0  0  0  0
    3.7633    1.5287    0.0000 C   0  0  0  0  0  0  0  0  0  0  0  0
    3.4830    0.7528    0.0000 C   0  0  2  0  0  0  0  0  0  0  0  0
    4.0148    0.1221    0.0000 C   0  0  2  0  0  0  0  0  0  0  0  0
    3.7345   -0.6539    0.0000 C   0  0  0  0  0  0  0  0  0  0  0  0
    2.9224   -0.7991    0.0000 C   0  0  1  0  0  0  0  0  0  0  0  0
    2.6421   -1.5750    0.0000 O   0  0  0  0  0  0  0  0  0  0  0  0
    2.3905   -0.1684    0.0000 C   0  0  2  0  0  0  0  0  0  0  0  0
    2.0307   -0.9107    0.0000 C   0  0  0  0  0  0  0  0  0  0  0  0
    1.5660   -0.1416    0.0000 C   0  0  2  0  0  0  0  0  0  0  0  0
    1.3367    0.6509    0.0000 C   0  0  0  0  0  0  0  0  0  0  0  0
    2.0195    1.1139    0.0000 C   0  0  0  0  0  0  0  0  0  0  0  0
    2.6708    0.6076    0.0000 C   0  0  1  0  0  0  0  0  0  0  0  0
    2.8685    1.4085    0.0000 O   0  0  0  0  0  0  0  0  0  0  0  0
    1.0596   -0.7929    0.0000 C   0  0  0  0  0  0  0  0  0  0  0  0
    1.2889   -1.5854    0.0000 C   0  0  0  0  0  0  0  0  0  0  0  0
    0.6061   -2.0484    0.0000 C   0  0  0  0  0  0  0  0  0  0  0  0
    0.5793   -2.8729    0.0000 O   0  0  0  0  0  0  0  0  0  0  0  0
   -0.0452   -1.5420    0.0000 O   0  0  0  0  0  0  0  0  0  0  0  0
    0.2351   -0.7661    0.0000 C   0  0  0  0  0  0  0  0  0  0  0  0
  2  1  1  1  0  0  0
  2  3  1  0  0  0  0
  3  4  1  0  0  0  0
  4  5  1  0  0  0  0
  5  6  1  1  0  0  0
  5  7  1  0  0  0  0
  8  7  1  1  0  0  0
  2  8  1  0  0  0  0
  8  9  1  0  0  0  0
  9 10  1  0  0  0  0
 11 10  1  6  0  0  0
 11 12  1  0  0  0  0
  2 12  1  0  0  0  0
 12 13  1  1  0  0  0
 13 14  1  0  0  0  0
 14 15  1  1  0  0  0
 14 16  1  0  0  0  0
 16 17  1  1  0  0  0
 16 18  1  0  0  0  0
 18 19  1  0  0  0  0
 19 20  1  0  0  0  0
 20 21  1  0  0  0  0
 11 21  1  0  0  0  0
 16 21  1  0  0  0  0
 21 22  1  6  0  0  0
 18 23  1  1  0  0  0
 23 24  2  0  0  0  0
 24 25  1  0  0  0  0
 25 26  2  0  0  0  0
 25 27  1  0  0  0  0
 27 28  1  0  0  0  0
 23 28  1  0  0  0  0
M  END
> <DRUGBANK_ID>
DB03671

> <DRUG_GROUPS>
experimental

> <GENERIC_NAME>
4-(3,12,14-Trihydroxy-10,13-Dimethyl-Hexadecahydro-Cyclopenta[a]Phenanthren-17-Yl)-5h-Furan-2-One

> <CHEMICAL_FORMULA>
C23H34O5

> <MOLECULAR_WEIGHT>
390.5131

> <EXACT_MASS>
390.240624198

> <IUPAC_NAME>
4-[(1S,2S,5S,7S,10R,11R,14R,15S,16R)-5,11,16-trihydroxy-2,15-dimethyltetracyclo[8.7.0.0^{2,7}.0^{11,15}]heptadecan-14-yl]-2,5-dihydrofuran-2-one

> <IUPAC_TRADITIONAL_NAME>
4-[(1S,2S,5S,7S,10R,11R,14R,15S,16R)-5,11,16-trihydroxy-2,15-dimethyltetracyclo[8.7.0.0^{2,7}.0^{11,15}]heptadecan-14-yl]-5H-furan-2-one

> <INCHI_IDENTIFIER>
InChI=1S/C23H34O5/c1-21-7-5-15(24)10-14(21)3-4-17-18(21)11-19(25)22(2)16(6-8-23(17,22)27)13-9-20(26)28-12-13/h9,14-19,24-25,27H,3-8,10-12H2,1-2H3/t14-,15-,16+,17+,18-,19+,21-,22-,23+/m0/s1

> <INCHI_KEY>
InChIKey=SHIBSTMRCDJXLN-VXSBHOQESA-N

> <SMILES>
C[C@@]12[C@H](CC[C@@]1(O)[C@@H]1CC[C@H]3C[C@@H](O)CC[C@]3(C)[C@H]1C[C@H]2O)C1=CC(=O)OC1

> <JCHEM_ACCEPTOR_COUNT>
4

> <JCHEM_DONOR_COUNT>
3

> <JCHEM_ACIDIC_PKA>
7.15

> <JCHEM_BASIC_PKA>
-1.4

> <JCHEM_PHYSIOLOGICAL_CHARGE>
0

> <ALOGPS_LOGP>
1.6

> <JCHEM_LOGP>
1.84

> <ALOGPS_LOGS>
-3.8

> <JCHEM_POLARIZABILITY>
43.65

> <JCHEM_POLAR_SURFACE_AREA>
86.99

> <JCHEM_REFRACTIVITY>
105.16

> <JCHEM_ROTATABLE_BOND_COUNT>
1

> <ALOGPS_SOLUBILITY>
6.32e-02 g/l __ 

$$$$
