
  Mrv0541 02231217102D          

 18 19  0  0  1  0            999 V2000
   -0.8182    1.3170    0.0000 N   0  0  0  0  0  0  0  0  0  0  0  0
   -0.2661    1.9301    0.0000 C   0  0  0  0  0  0  0  0  0  0  0  0
   -0.5211    2.7147    0.0000 N   0  0  0  0  0  0  0  0  0  0  0  0
    0.0309    3.3278    0.0000 C   0  0  0  0  0  0  0  0  0  0  0  0
    0.8379    3.1563    0.0000 N   0  0  0  0  0  0  0  0  0  0  0  0
    1.0929    2.3716    0.0000 C   0  0  0  0  0  0  0  0  0  0  0  0
    0.5408    1.7586    0.0000 C   0  0  0  0  0  0  0  0  0  0  0  0
    0.9533    1.0441    0.0000 N   0  0  0  0  0  0  0  0  0  0  0  0
    1.7603    1.2156    0.0000 C   0  0  0  0  0  0  0  0  0  0  0  0
    1.8465    2.0361    0.0000 N   0  0  0  0  0  0  0  0  0  0  0  0
    2.5610    2.4486    0.0000 C   0  0  0  0  0  0  0  0  0  0  0  0
    3.2755    2.0361    0.0000 C   0  0  2  0  0  0  0  0  0  0  0  0
    3.2755    1.2111    0.0000 O   0  0  0  0  0  0  0  0  0  0  0  0
    3.9899    2.4486    0.0000 C   0  0  1  0  0  0  0  0  0  0  0  0
    3.9899    3.2736    0.0000 O   0  0  0  0  0  0  0  0  0  0  0  0
    4.7044    2.0361    0.0000 C   0  0  0  0  0  0  0  0  0  0  0  0
    5.4189    2.4486    0.0000 O   0  0  0  0  0  0  0  0  0  0  0  0
    4.7044    1.2111    0.0000 O   0  0  0  0  0  0  0  0  0  0  0  0
  1  2  1  0  0  0  0
  2  3  2  0  0  0  0
  3  4  1  0  0  0  0
  4  5  2  0  0  0  0
  5  6  1  0  0  0  0
  6  7  2  0  0  0  0
  2  7  1  0  0  0  0
  7  8  1  0  0  0  0
  8  9  2  0  0  0  0
  9 10  1  0  0  0  0
  6 10  1  0  0  0  0
 10 11  1  0  0  0  0
 11 12  1  0  0  0  0
 12 13  1  1  0  0  0
 12 14  1  0  0  0  0
 14 15  1  1  0  0  0
 14 16  1  0  0  0  0
 16 17  1  0  0  0  0
 16 18  2  0  0  0  0
M  END
> <DRUGBANK_ID>
DB03769

> <DRUG_GROUPS>
experimental

> <GENERIC_NAME>
D-Eritadenine

> <CHEMICAL_FORMULA>
C9H11N5O4

> <MOLECULAR_WEIGHT>
253.2147

> <EXACT_MASS>
253.081103865

> <IUPAC_NAME>
(2R,3S)-4-(6-amino-9H-purin-9-yl)-2,3-dihydroxybutanoic acid

> <IUPAC_TRADITIONAL_NAME>
D-eritadenine

> <INCHI_IDENTIFIER>
InChI=1S/C9H11N5O4/c10-7-5-8(12-2-11-7)14(3-13-5)1-4(15)6(16)9(17)18/h2-4,6,15-16H,1H2,(H,17,18)(H2,10,11,12)/t4-,6+/m0/s1

> <INCHI_KEY>
InChIKey=LIEMBEWXEZJEEZ-UJURSFKZSA-N

> <SMILES>
NC1=NC=NC2=C1N=CN2C[C@H](O)[C@@H](O)C(O)=O

> <JCHEM_ACCEPTOR_COUNT>
8

> <JCHEM_DONOR_COUNT>
4

> <JCHEM_ACIDIC_PKA>
3.26

> <JCHEM_BASIC_PKA>
5.13

> <JCHEM_PHYSIOLOGICAL_CHARGE>
-1

> <ALOGPS_LOGP>
-1.7

> <JCHEM_LOGP>
-3.4

> <ALOGPS_LOGS>
-1.4

> <JCHEM_POLARIZABILITY>
22.98

> <JCHEM_POLAR_SURFACE_AREA>
147.38

> <JCHEM_REFRACTIVITY>
59.58

> <JCHEM_ROTATABLE_BOND_COUNT>
4

> <ALOGPS_SOLUBILITY>
9.78e+00 g/l __ 

$$$$
