
  Mrv0541 02231217192D          

 50 50  0  0  1  0            999 V2000
  -17.2145   -9.5901    0.0000 C   0  0  0  0  0  0  0  0  0  0  0  0
  -16.5000  -10.0026    0.0000 C   0  0  0  0  0  0  0  0  0  0  0  0
  -15.7855   -9.5901    0.0000 C   0  0  0  0  0  0  0  0  0  0  0  0
  -15.0711  -10.0026    0.0000 C   0  0  0  0  0  0  0  0  0  0  0  0
  -14.3566   -9.5901    0.0000 C   0  0  0  0  0  0  0  0  0  0  0  0
  -13.6421  -10.0026    0.0000 C   0  0  0  0  0  0  0  0  0  0  0  0
  -12.9276   -9.5901    0.0000 C   0  0  0  0  0  0  0  0  0  0  0  0
  -12.2132  -10.0026    0.0000 C   0  0  0  0  0  0  0  0  0  0  0  0
  -11.4987   -9.5901    0.0000 C   0  0  0  0  0  0  0  0  0  0  0  0
  -10.7842  -10.0026    0.0000 C   0  0  0  0  0  0  0  0  0  0  0  0
  -10.0698   -9.5901    0.0000 C   0  0  0  0  0  0  0  0  0  0  0  0
   -9.3553  -10.0026    0.0000 C   0  0  0  0  0  0  0  0  0  0  0  0
   -8.6408   -9.5901    0.0000 C   0  0  0  0  0  0  0  0  0  0  0  0
   -7.9263  -10.0026    0.0000 C   0  0  0  0  0  0  0  0  0  0  0  0
   -7.2119   -9.5901    0.0000 C   0  0  0  0  0  0  0  0  0  0  0  0
   -6.4974  -10.0026    0.0000 C   0  0  0  0  0  0  0  0  0  0  0  0
   -6.4974  -10.8276    0.0000 O   0  0  0  0  0  0  0  0  0  0  0  0
   -5.7829   -9.5901    0.0000 O   0  0  0  0  0  0  0  0  0  0  0  0
   -5.0685  -10.0026    0.0000 C   0  0  0  0  0  0  0  0  0  0  0  0
   -4.3540   -9.5901    0.0000 C   0  0  1  0  0  0  0  0  0  0  0  0
   -4.3540   -8.7651    0.0000 C   0  0  0  0  0  0  0  0  0  0  0  0
   -5.0685   -8.3526    0.0000 O   0  0  0  0  0  0  0  0  0  0  0  0
   -5.0685   -7.5276    0.0000 P   0  0  2  0  0  0  0  0  0  0  0  0
   -4.2435   -7.5276    0.0000 O   0  0  0  0  0  0  0  0  0  0  0  0
   -5.8935   -7.5276    0.0000 O   0  0  0  0  0  0  0  0  0  0  0  0
   -5.0685   -6.7026    0.0000 O   0  0  0  0  0  0  0  0  0  0  0  0
   -5.7829   -6.2901    0.0000 C   0  0  0  0  0  0  0  0  0  0  0  0
   -5.7829   -5.4651    0.0000 C   0  0  1  0  0  0  0  0  0  0  0  0
   -5.0685   -5.0526    0.0000 O   0  0  0  0  0  0  0  0  0  0  0  0
   -6.4974   -5.0526    0.0000 C   0  0  0  0  0  0  0  0  0  0  0  0
   -6.4974   -4.2276    0.0000 O   0  0  0  0  0  0  0  0  0  0  0  0
   -3.6395  -10.0026    0.0000 O   0  0  0  0  0  0  0  0  0  0  0  0
   -2.9251   -9.5901    0.0000 C   0  0  0  0  0  0  0  0  0  0  0  0
   -2.9251   -8.7651    0.0000 O   0  0  0  0  0  0  0  0  0  0  0  0
   -2.2106  -10.0026    0.0000 C   0  0  0  0  0  0  0  0  0  0  0  0
   -1.4961   -9.5901    0.0000 C   0  0  0  0  0  0  0  0  0  0  0  0
   -0.7816  -10.0026    0.0000 C   0  0  0  0  0  0  0  0  0  0  0  0
   -0.0672   -9.5901    0.0000 C   0  0  0  0  0  0  0  0  0  0  0  0
    0.6473  -10.0026    0.0000 C   0  0  0  0  0  0  0  0  0  0  0  0
    1.3618   -9.5901    0.0000 C   0  0  0  0  0  0  0  0  0  0  0  0
    2.0762  -10.0026    0.0000 C   0  0  0  0  0  0  0  0  0  0  0  0
    2.7907   -9.5901    0.0000 C   0  0  2  0  0  0  0  0  0  0  0  0
    3.2032   -8.8756    0.0000 C   0  0  0  0  0  0  0  0  0  0  0  0
    3.6157   -9.5901    0.0000 C   0  0  1  0  0  0  0  0  0  0  0  0
    4.3302  -10.0026    0.0000 C   0  0  0  0  0  0  0  0  0  0  0  0
    5.0447   -9.5901    0.0000 C   0  0  0  0  0  0  0  0  0  0  0  0
    5.7591  -10.0026    0.0000 C   0  0  0  0  0  0  0  0  0  0  0  0
    6.4736   -9.5901    0.0000 C   0  0  0  0  0  0  0  0  0  0  0  0
    7.1881  -10.0026    0.0000 C   0  0  0  0  0  0  0  0  0  0  0  0
    7.9025   -9.5901    0.0000 C   0  0  0  0  0  0  0  0  0  0  0  0
  1  2  1  0  0  0  0
  2  3  1  0  0  0  0
  3  4  1  0  0  0  0
  4  5  1  0  0  0  0
  5  6  1  0  0  0  0
  6  7  1  0  0  0  0
  7  8  1  0  0  0  0
  8  9  1  0  0  0  0
  9 10  1  0  0  0  0
 10 11  1  0  0  0  0
 11 12  1  0  0  0  0
 12 13  1  0  0  0  0
 13 14  1  0  0  0  0
 14 15  1  0  0  0  0
 15 16  1  0  0  0  0
 16 17  2  0  0  0  0
 16 18  1  0  0  0  0
 18 19  1  0  0  0  0
 19 20  1  0  0  0  0
 20 21  1  0  0  0  0
 21 22  1  0  0  0  0
 23 22  1  6  0  0  0
 23 24  1  1  0  0  0
 23 25  2  0  0  0  0
 23 26  1  0  0  0  0
 26 27  1  0  0  0  0
 27 28  1  0  0  0  0
 28 29  1  6  0  0  0
 28 30  1  0  0  0  0
 30 31  1  0  0  0  0
 20 32  1  1  0  0  0
 32 33  1  0  0  0  0
 33 34  2  0  0  0  0
 33 35  1  0  0  0  0
 35 36  1  0  0  0  0
 36 37  1  0  0  0  0
 37 38  1  0  0  0  0
 38 39  1  0  0  0  0
 39 40  1  0  0  0  0
 40 41  1  0  0  0  0
 42 41  1  6  0  0  0
 42 43  1  0  0  0  0
 43 44  1  0  0  0  0
 42 44  1  0  0  0  0
 44 45  1  1  0  0  0
 45 46  1  0  0  0  0
 46 47  1  0  0  0  0
 47 48  1  0  0  0  0
 48 49  1  0  0  0  0
 49 50  1  0  0  0  0
M  END
> <DRUGBANK_ID>
DB03979

> <DRUG_GROUPS>
experimental

> <GENERIC_NAME>
1-[Glycerolylphosphonyl]-2-[8-(2-Hexyl-Cyclopropyl)-Octanal-1-Yl]-3-[Hexadecanal-1-Yl]-Glycerol

> <CHEMICAL_FORMULA>
C39H75O10P

> <MOLECULAR_WEIGHT>
734.9806

> <EXACT_MASS>
734.509785132

> <IUPAC_NAME>
[(2S)-2,3-dihydroxypropoxy][(2S)-3-(hexadecanoyloxy)-2-({8-[(1R,2R)-2-hexylcyclopropyl]octanoyl}oxy)propoxy]phosphinic acid

> <IUPAC_TRADITIONAL_NAME>
(2S)-2,3-dihydroxypropoxy(2S)-3-(hexadecanoyloxy)-2-({8-[(1R,2R)-2-hexylcyclopropyl]octanoyl}oxy)propoxyphosphinic acid

> <INCHI_IDENTIFIER>
InChI=1S/C39H75O10P/c1-3-5-7-9-10-11-12-13-14-15-16-19-23-27-38(42)46-32-37(33-48-50(44,45)47-31-36(41)30-40)49-39(43)28-24-20-17-18-22-26-35-29-34(35)25-21-8-6-4-2/h34-37,40-41H,3-33H2,1-2H3,(H,44,45)/t34-,35-,36+,37+/m1/s1

> <INCHI_KEY>
InChIKey=JWIOKCJPLNKYBQ-MDOFDWFASA-N

> <SMILES>
CCCCCCCCCCCCCCCC(=O)OC[C@@H](CO[P@](O)(=O)OC[C@@H](O)CO)OC(=O)CCCCCCC[C@@H]1C[C@H]1CCCCCC

> <JCHEM_ACCEPTOR_COUNT>
6

> <JCHEM_DONOR_COUNT>
3

> <JCHEM_ACIDIC_PKA>
1.89

> <JCHEM_BASIC_PKA>
-3

> <JCHEM_PHYSIOLOGICAL_CHARGE>
-1

> <ALOGPS_LOGP>
7.7

> <JCHEM_LOGP>
10.6

> <ALOGPS_LOGS>
-6.8

> <JCHEM_POLARIZABILITY>
88.62

> <JCHEM_POLAR_SURFACE_AREA>
148.82

> <JCHEM_REFRACTIVITY>
198

> <JCHEM_ROTATABLE_BOND_COUNT>
39

> <ALOGPS_SOLUBILITY>
1.27e-04 g/l __ 

$$$$
