
  Mrv0541 02231217102D          

 18 19  0  0  0  0            999 V2000
   -0.7145   -0.4125    0.0000 O   0  5  0  0  0  0  0  0  0  0  0  0
    0.0000    0.0000    0.0000 N   0  3  0  0  0  0  0  0  0  0  0  0
    0.0000    0.8250    0.0000 O   0  0  0  0  0  0  0  0  0  0  0  0
    0.7145   -0.4125    0.0000 C   0  0  0  0  0  0  0  0  0  0  0  0
    1.4289    0.0000    0.0000 C   0  0  0  0  0  0  0  0  0  0  0  0
    2.1434   -0.4125    0.0000 C   0  0  0  0  0  0  0  0  0  0  0  0
    2.8579    0.0000    0.0000 N   0  0  0  0  0  0  0  0  0  0  0  0
    3.5724   -0.4125    0.0000 C   0  0  0  0  0  0  0  0  0  0  0  0
    4.2868    0.0000    0.0000 O   0  0  0  0  0  0  0  0  0  0  0  0
    3.5724   -1.2375    0.0000 C   0  0  0  0  0  0  0  0  0  0  0  0
    4.2868   -1.6500    0.0000 O   0  0  0  0  0  0  0  0  0  0  0  0
    2.8579   -1.6500    0.0000 N   0  0  0  0  0  0  0  0  0  0  0  0
    2.1434   -1.2375    0.0000 C   0  0  0  0  0  0  0  0  0  0  0  0
    1.4289   -1.6500    0.0000 C   0  0  0  0  0  0  0  0  0  0  0  0
    0.7145   -1.2375    0.0000 C   0  0  0  0  0  0  0  0  0  0  0  0
    0.0000   -1.6500    0.0000 N   0  3  0  0  0  0  0  0  0  0  0  0
   -0.7145   -1.2375    0.0000 O   0  5  0  0  0  0  0  0  0  0  0  0
    0.0000   -2.4750    0.0000 O   0  0  0  0  0  0  0  0  0  0  0  0
  1  2  1  0  0  0  0
  2  3  2  0  0  0  0
  2  4  1  0  0  0  0
  4  5  2  0  0  0  0
  5  6  1  0  0  0  0
  6  7  2  0  0  0  0
  7  8  1  0  0  0  0
  8  9  2  0  0  0  0
  8 10  1  0  0  0  0
 10 11  2  0  0  0  0
 10 12  1  0  0  0  0
 12 13  2  0  0  0  0
  6 13  1  0  0  0  0
 13 14  1  0  0  0  0
 14 15  2  0  0  0  0
  4 15  1  0  0  0  0
 15 16  1  0  0  0  0
 16 17  1  0  0  0  0
 16 18  2  0  0  0  0
M  END
> <DRUGBANK_ID>
DB03759

> <DRUG_GROUPS>
experimental

> <GENERIC_NAME>
Dnqx

> <CHEMICAL_FORMULA>
C8H2N4O6

> <MOLECULAR_WEIGHT>
250.1247

> <EXACT_MASS>
249.997433816

> <IUPAC_NAME>
6,7-dinitro-2,3-dihydroquinoxaline-2,3-dione

> <IUPAC_TRADITIONAL_NAME>
dnqx

> <INCHI_IDENTIFIER>
InChI=1S/C8H2N4O6/c13-7-8(14)10-4-2-6(12(17)18)5(11(15)16)1-3(4)9-7/h1-2H

> <INCHI_KEY>
InChIKey=YEUPBRRGMWBCEB-UHFFFAOYSA-N

> <SMILES>
[O-][N+](=O)C1=CC2=NC(=O)C(=O)N=C2C=C1[N+]([O-])=O

> <JCHEM_ACCEPTOR_COUNT>
8

> <JCHEM_DONOR_COUNT>
0

> <JCHEM_BASIC_PKA>
-5.9

> <JCHEM_PHYSIOLOGICAL_CHARGE>
0

> <ALOGPS_LOGP>
0.69

> <JCHEM_LOGP>
-0.72

> <ALOGPS_LOGS>
-4.4

> <JCHEM_POLARIZABILITY>
19.17

> <JCHEM_POLAR_SURFACE_AREA>
150.5

> <JCHEM_REFRACTIVITY>
55.61

> <JCHEM_ROTATABLE_BOND_COUNT>
2

> <ALOGPS_SOLUBILITY>
9.59e-03 g/l __ 

$$$$
