
  Mrv0541 02231216392D          

  5  4  0  0  0  0            999 V2000
    2.4750   -1.4289    0.0000 O   0  0  0  0  0  0  0  0  0  0  0  0
    2.0625   -0.7145    0.0000 C   0  0  0  0  0  0  0  0  0  0  0  0
    1.2375   -0.7145    0.0000 C   0  0  0  0  0  0  0  0  0  0  0  0
    0.8250    0.0000    0.0000 C   0  0  0  0  0  0  0  0  0  0  0  0
    0.0000    0.0000    0.0000 O   0  0  0  0  0  0  0  0  0  0  0  0
  1  2  2  0  0  0  0
  2  3  1  0  0  0  0
  3  4  1  0  0  0  0
  4  5  2  0  0  0  0
M  END
> <DRUGBANK_ID>
DB03057

> <DRUG_GROUPS>
experimental

> <GENERIC_NAME>
Malonaldehyde

> <CHEMICAL_FORMULA>
C3H4O2

> <MOLECULAR_WEIGHT>
72.0627

> <EXACT_MASS>
72.021129372

> <IUPAC_NAME>
propanedial

> <IUPAC_TRADITIONAL_NAME>
malonaldehyde

> <INCHI_IDENTIFIER>
InChI=1S/C3H4O2/c4-2-1-3-5/h2-3H,1H2

> <INCHI_KEY>
InChIKey=WSMYVTOQOOLQHP-UHFFFAOYSA-N

> <SMILES>
O=CCC=O

> <JCHEM_ACCEPTOR_COUNT>
2

> <JCHEM_DONOR_COUNT>
0

> <JCHEM_ACIDIC_PKA>
6.68

> <JCHEM_BASIC_PKA>
-6.8

> <JCHEM_PHYSIOLOGICAL_CHARGE>
-1

> <ALOGPS_LOGP>
0.1

> <JCHEM_LOGP>
-0.65

> <ALOGPS_LOGS>
0.52

> <JCHEM_POLARIZABILITY>
6.42

> <JCHEM_POLAR_SURFACE_AREA>
34.14

> <JCHEM_REFRACTIVITY>
17.14

> <JCHEM_ROTATABLE_BOND_COUNT>
2

> <ALOGPS_SOLUBILITY>
2.41e+02 g/l __ 

$$$$
