
  Mrv0541 02231217072D          

 34 34  0  0  1  0            999 V2000
    5.0013    1.2375    0.0000 N   0  0  0  0  0  0  0  0  0  0  0  0
    5.0013    0.4125    0.0000 C   0  0  1  0  0  0  0  0  0  0  0  0
    4.2868    0.0000    0.0000 C   0  0  0  0  0  0  0  0  0  0  0  0
    3.5724    0.4125    0.0000 C   0  0  0  0  0  0  0  0  0  0  0  0
    2.8579    0.0000    0.0000 C   0  0  0  0  0  0  0  0  0  0  0  0
    2.8579   -0.8250    0.0000 O   0  0  0  0  0  0  0  0  0  0  0  0
    2.1434    0.4125    0.0000 N   0  0  0  0  0  0  0  0  0  0  0  0
    1.4289    0.0000    0.0000 C   0  0  2  0  0  0  0  0  0  0  0  0
    0.7145    0.4125    0.0000 C   0  0  0  0  0  0  0  0  0  0  0  0
    0.0000    0.0000    0.0000 S   0  0  0  0  0  0  0  0  0  0  0  0
   -0.7145    0.4125    0.0000 C   0  0  2  0  0  0  0  0  0  0  0  0
   -0.7145    1.2375    0.0000 C   0  0  0  0  0  0  0  0  0  0  0  0
   -1.4289    1.6500    0.0000 O   0  0  0  0  0  0  0  0  0  0  0  0
   -1.4289    0.0000    0.0000 C   0  0  0  0  0  0  0  0  0  0  0  0
   -2.1434    0.4125    0.0000 O   0  0  0  0  0  0  0  0  0  0  0  0
   -2.8579    0.0000    0.0000 C   0  0  0  0  0  0  0  0  0  0  0  0
   -2.8579   -0.8250    0.0000 C   0  0  0  0  0  0  0  0  0  0  0  0
   -3.5724   -1.2375    0.0000 C   0  0  0  0  0  0  0  0  0  0  0  0
   -4.2868   -0.8250    0.0000 C   0  0  0  0  0  0  0  0  0  0  0  0
   -4.2868    0.0000    0.0000 C   0  0  0  0  0  0  0  0  0  0  0  0
   -3.5724    0.4125    0.0000 C   0  0  0  0  0  0  0  0  0  0  0  0
   -5.0013   -1.2375    0.0000 N   0  3  0  0  0  0  0  0  0  0  0  0
   -5.7158   -0.8250    0.0000 O   0  5  0  0  0  0  0  0  0  0  0  0
   -5.0013   -2.0625    0.0000 O   0  0  0  0  0  0  0  0  0  0  0  0
    1.4289   -0.8250    0.0000 C   0  0  0  0  0  0  0  0  0  0  0  0
    0.7145   -1.2375    0.0000 O   0  0  0  0  0  0  0  0  0  0  0  0
    2.1434   -1.2375    0.0000 N   0  0  0  0  0  0  0  0  0  0  0  0
    2.1434   -2.0625    0.0000 C   0  0  0  0  0  0  0  0  0  0  0  0
    2.8579   -2.4750    0.0000 C   0  0  0  0  0  0  0  0  0  0  0  0
    3.5724   -2.0625    0.0000 O   0  0  0  0  0  0  0  0  0  0  0  0
    2.8579   -3.3000    0.0000 O   0  0  0  0  0  0  0  0  0  0  0  0
    5.7158    0.0000    0.0000 C   0  0  0  0  0  0  0  0  0  0  0  0
    6.4302    0.4125    0.0000 O   0  0  0  0  0  0  0  0  0  0  0  0
    5.7158   -0.8250    0.0000 O   0  0  0  0  0  0  0  0  0  0  0  0
  2  1  1  6  0  0  0
  2  3  1  0  0  0  0
  3  4  1  0  0  0  0
  4  5  1  0  0  0  0
  5  6  2  0  0  0  0
  5  7  1  0  0  0  0
  8  7  1  1  0  0  0
  8  9  1  0  0  0  0
  9 10  1  0  0  0  0
 11 10  1  1  0  0  0
 11 12  1  0  0  0  0
 12 13  1  0  0  0  0
 11 14  1  0  0  0  0
 14 15  1  0  0  0  0
 15 16  1  0  0  0  0
 16 17  2  0  0  0  0
 17 18  1  0  0  0  0
 18 19  2  0  0  0  0
 19 20  1  0  0  0  0
 20 21  2  0  0  0  0
 16 21  1  0  0  0  0
 19 22  1  0  0  0  0
 22 23  1  0  0  0  0
 22 24  2  0  0  0  0
  8 25  1  0  0  0  0
 25 26  2  0  0  0  0
 25 27  1  0  0  0  0
 27 28  1  0  0  0  0
 28 29  1  0  0  0  0
 29 30  1  0  0  0  0
 29 31  2  0  0  0  0
  2 32  1  0  0  0  0
 32 33  1  0  0  0  0
 32 34  2  0  0  0  0
M  END
> <DRUGBANK_ID>
DB03706

> <DRUG_GROUPS>
experimental

> <GENERIC_NAME>
1-Hydroxy-2-S-Glutathionyl-3-Para-Nitrophenoxy-Propane

> <CHEMICAL_FORMULA>
C19H26N4O10S

> <MOLECULAR_WEIGHT>
502.496

> <EXACT_MASS>
502.136963762

> <IUPAC_NAME>
(2S)-2-amino-4-{[(1S)-1-[(carboxymethyl)carbamoyl]-2-{[(2R)-1-hydroxy-3-(4-nitrophenoxy)propan-2-yl]sulfanyl}ethyl]carbamoyl}butanoic acid

> <IUPAC_TRADITIONAL_NAME>
(2S)-2-amino-4-{[(1S)-1-(carboxymethylcarbamoyl)-2-{[(2R)-1-hydroxy-3-(4-nitrophenoxy)propan-2-yl]sulfanyl}ethyl]carbamoyl}butanoic acid

> <INCHI_IDENTIFIER>
InChI=1S/C19H26N4O10S/c20-14(19(29)30)5-6-16(25)22-15(18(28)21-7-17(26)27)10-34-13(8-24)9-33-12-3-1-11(2-4-12)23(31)32/h1-4,13-15,24H,5-10,20H2,(H,21,28)(H,22,25)(H,26,27)(H,29,30)/t13-,14+,15-/m1/s1

> <INCHI_KEY>
InChIKey=YWXHXYSGHBAIBL-QLFBSQMISA-N

> <SMILES>
N[C@@H](CCC(=O)N[C@H](CS[C@H](CO)COC1=CC=C(C=C1)[N+]([O-])=O)C(=O)NCC(O)=O)C(O)=O

> <JCHEM_ACCEPTOR_COUNT>
11

> <JCHEM_DONOR_COUNT>
6

> <JCHEM_ACIDIC_PKA>
1.8

> <JCHEM_BASIC_PKA>
9.31

> <JCHEM_PHYSIOLOGICAL_CHARGE>
-1

> <ALOGPS_LOGP>
-1.9

> <JCHEM_LOGP>
-4

> <ALOGPS_LOGS>
-3.3

> <JCHEM_POLARIZABILITY>
48.54

> <JCHEM_POLAR_SURFACE_AREA>
234.1

> <JCHEM_REFRACTIVITY>
117.84

> <JCHEM_ROTATABLE_BOND_COUNT>
16

> <ALOGPS_SOLUBILITY>
2.74e-01 g/l __ 

$$$$
