
  Mrv0541 02231217182D          

 36 39  0  0  1  0            999 V2000
   -3.7819   -9.2239    0.0000 N    0  0  0  0  0  0  0  0  0  0  0  0
   -3.2419   -8.6002    0.0000 C    0  0  0  0  0  0  0  0  0  0  0  0
   -3.5119   -7.8207    0.0000 N    0  0  0  0  0  0  0  0  0  0  0  0
   -2.4317   -8.7561    0.0000 N    0  0  0  0  0  0  0  0  0  0  0  0
   -2.1617   -9.5357    0.0000 C    0  0  2  0  0  0  0  0  0  0  0  0
   -2.7018  -10.1593    0.0000 C    0  0  0  0  0  0  0  0  0  0  0  0
   -2.4317  -10.9389    0.0000 C    0  0  0  0  0  0  0  0  0  0  0  0
   -2.9718  -11.5625    0.0000 C    0  0  0  0  0  0  0  0  0  0  0  0
   -3.7819  -11.4066    0.0000 C    0  0  0  0  0  0  0  0  0  0  0  0
   -4.0520  -10.6271    0.0000 C    0  0  0  0  0  0  0  0  0  0  0  0
   -3.5119  -10.0034    0.0000 C    0  0  0  0  0  0  0  0  0  0  0  0
   -1.3515   -9.6916    0.0000 C    0  0  0  0  0  0  0  0  0  0  0  0
   -1.0815  -10.4712    0.0000 O    0  0  0  0  0  0  0  0  0  0  0  0
   -0.8115   -9.0680    0.0000 N    0  0  0  0  0  0  0  0  0  0  0  0
   -0.0013   -9.2239    0.0000 C    0  0  0  0  0  0  0  0  0  0  0  0
    0.5388   -8.6002    0.0000 C    0  0  0  0  0  0  0  0  0  0  0  0
    0.2687   -7.8207    0.0000 O    0  0  0  0  0  0  0  0  0  0  0  0
    1.3489   -8.7561    0.0000 N    0  0  0  0  0  0  0  0  0  0  0  0
    1.8890   -8.1325    0.0000 C    0  0  0  0  0  0  0  0  0  0  0  0
    2.6991   -8.2884    0.0000 C    0  0  0  0  0  0  0  0  0  0  0  0
    2.9692   -9.0680    0.0000 C    0  0  0  0  0  0  0  0  0  0  0  0
    2.4291   -9.6916    0.0000 C    0  0  0  0  0  0  0  0  0  0  0  0
    1.6189   -9.5357    0.0000 C    0  0  0  0  0  0  0  0  0  0  0  0
    3.7793   -9.2239    0.0000 C    0  0  0  0  0  0  0  0  0  0  0  0
    4.3816   -8.6601    0.0000 C    0  0  0  0  0  0  0  0  0  0  0  0
    5.1039   -9.0587    0.0000 C    0  0  0  0  0  0  0  0  0  0  0  0
    4.9480   -9.8689    0.0000 N    0  0  0  0  0  0  0  0  0  0  0  0
    4.1294   -9.9709    0.0000 N    0  0  0  0  0  0  0  0  0  0  0  0
    5.8510   -8.7087    0.0000 C    0  0  0  0  0  0  0  0  0  0  0  0
    5.9214   -7.8867    0.0000 C    0  0  0  0  0  0  0  0  0  0  0  0
    6.6684   -7.5366    0.0000 C    0  0  0  0  0  0  0  0  0  0  0  0
    7.3451   -8.0086    0.0000 C    0  0  0  0  0  0  0  0  0  0  0  0
    7.2747   -8.8306    0.0000 C    0  0  0  0  0  0  0  0  0  0  0  0
    7.9514   -9.3025    0.0000 Cl   0  0  0  0  0  0  0  0  0  0  0  0
    6.5277   -9.1806    0.0000 C    0  0  0  0  0  0  0  0  0  0  0  0
    6.4573  -10.0026    0.0000 Cl   0  0  0  0  0  0  0  0  0  0  0  0
  1  2  1  0  0  0  0
  2  3  2  0  0  0  0
  2  4  1  0  0  0  0
  5  4  1  1  0  0  0
  5  6  1  0  0  0  0
  6  7  1  0  0  0  0
  7  8  1  0  0  0  0
  8  9  1  0  0  0  0
  9 10  1  0  0  0  0
 10 11  1  0  0  0  0
  6 11  1  0  0  0  0
  5 12  1  0  0  0  0
 12 13  2  0  0  0  0
 12 14  1  0  0  0  0
 14 15  1  0  0  0  0
 15 16  1  0  0  0  0
 16 17  2  0  0  0  0
 16 18  1  0  0  0  0
 18 19  1  0  0  0  0
 19 20  1  0  0  0  0
 20 21  1  0  0  0  0
 21 22  1  0  0  0  0
 22 23  1  0  0  0  0
 18 23  1  0  0  0  0
 21 24  1  0  0  0  0
 24 25  4  0  0  0  0
 25 26  4  0  0  0  0
 26 27  4  0  0  0  0
 27 28  4  0  0  0  0
 24 28  4  0  0  0  0
 26 29  1  0  0  0  0
 29 30  2  0  0  0  0
 30 31  1  0  0  0  0
 31 32  2  0  0  0  0
 32 33  1  0  0  0  0
 33 34  1  0  0  0  0
 33 35  2  0  0  0  0
 29 35  1  0  0  0  0
 35 36  1  0  0  0  0
M  END
> <DRUGBANK_ID>
DB03957

> <DRUG_GROUPS>
experimental

> <GENERIC_NAME>
SP2456

> <CHEMICAL_FORMULA>
C25H32Cl2N7O2

> <MOLECULAR_WEIGHT>
533.473

> <EXACT_MASS>
532.199453717

> <IUPAC_NAME>
(2R)-2-carbamimidamido-2-cyclohexyl-N-(2-{4-[5-(2,3-dichlorophenyl)pyrazol-3-yl]piperidin-1-yl}-2-oxoethyl)acetamide

> <IUPAC_TRADITIONAL_NAME>
(2R)-2-carbamimidamido-2-cyclohexyl-N-(2-{4-[5-(2,3-dichlorophenyl)pyrazol-3-yl]piperidin-1-yl}-2-oxoethyl)acetamide

> <INCHI_IDENTIFIER>
InChI=1S/C25H32Cl2N7O2/c26-18-8-4-7-17(22(18)27)20-13-19(32-33-20)15-9-11-34(12-10-15)21(35)14-30-24(36)23(31-25(28)29)16-5-2-1-3-6-16/h4,7-8,13,15-16,23H,1-3,5-6,9-12,14H2,(H,30,36)(H4,28,29,31)/t23-/m1/s1

> <INCHI_KEY>
InChIKey=LQEJVHAIGZKLBA-HSZRJFAPSA-N

> <SMILES>
NC(=N)N[C@H](C1CCCCC1)C(=O)NCC(=O)N1CCC(CC1)c1cc(nn1)C1=CC=CC(Cl)=C1Cl

> <JCHEM_ACCEPTOR_COUNT>
7

> <JCHEM_DONOR_COUNT>
4

> <JCHEM_ACIDIC_PKA>
12.72

> <JCHEM_BASIC_PKA>
11.42

> <JCHEM_PHYSIOLOGICAL_CHARGE>
1

> <ALOGPS_LOGP>
3.5

> <JCHEM_LOGP>
2.34

> <ALOGPS_LOGS>
-4.9

> <JCHEM_POLARIZABILITY>
56.1

> <JCHEM_POLAR_SURFACE_AREA>
137.09

> <JCHEM_REFRACTIVITY>
150.75

> <JCHEM_ROTATABLE_BOND_COUNT>
7

> <ALOGPS_SOLUBILITY>
7.38e-03 g/l __ 

$$$$
