
  Mrv0541 02231217042D          

  6  5  0  0  0  0            999 V2000
    0.1105   -1.2375    0.0000 C   0  0  0  0  0  0  0  0  0  0  0  0
    0.8250   -0.8250    0.0000 C   0  0  0  0  0  0  0  0  0  0  0  0
    0.8250    0.0000    0.0000 S   0  0  0  0  0  0  0  0  0  0  0  0
    0.8250    0.8250    0.0000 O   0  0  0  0  0  0  0  0  0  0  0  0
    1.6500    0.0000    0.0000 O   0  0  0  0  0  0  0  0  0  0  0  0
    0.0000    0.0000    0.0000 O   0  0  0  0  0  0  0  0  0  0  0  0
  1  2  1  0  0  0  0
  2  3  1  0  0  0  0
  3  4  1  0  0  0  0
  3  5  2  0  0  0  0
  3  6  2  0  0  0  0
M  END
> <DRUGBANK_ID>
DB03635

> <DRUG_GROUPS>
experimental

> <GENERIC_NAME>
Ethanesulfonic Acid

> <CHEMICAL_FORMULA>
C2H6O3S

> <MOLECULAR_WEIGHT>
110.132

> <EXACT_MASS>
110.003764748

> <IUPAC_NAME>
ethanesulfonic acid

> <IUPAC_TRADITIONAL_NAME>
ethanesulfonic acid

> <INCHI_IDENTIFIER>
InChI=1S/C2H6O3S/c1-2-6(3,4)5/h2H2,1H3,(H,3,4,5)

> <INCHI_KEY>
InChIKey=CCIVGXIOQKPBKL-UHFFFAOYSA-N

> <SMILES>
CCS(O)(=O)=O

> <JCHEM_ACCEPTOR_COUNT>
3

> <JCHEM_DONOR_COUNT>
1

> <JCHEM_ACIDIC_PKA>
-1.3

> <JCHEM_PHYSIOLOGICAL_CHARGE>
-1

> <ALOGPS_LOGP>
-1.7

> <JCHEM_LOGP>
-0.45

> <ALOGPS_LOGS>
-0.32

> <JCHEM_POLARIZABILITY>
9.42

> <JCHEM_POLAR_SURFACE_AREA>
54.37

> <JCHEM_REFRACTIVITY>
21.4

> <JCHEM_ROTATABLE_BOND_COUNT>
1

> <ALOGPS_SOLUBILITY>
5.24e+01 g/l __ 

$$$$
