
  Mrv0541 02231217082D          

 13 12  0  0  1  0            999 V2000
    7.2849    3.3809    0.0000 N   0  0  0  0  0  0  0  0  0  0  0  0
    7.2849    2.5559    0.0000 C   0  0  1  0  0  0  0  0  0  0  0  0
    6.5704    2.1434    0.0000 C   0  0  0  0  0  0  0  0  0  0  0  0
    5.8559    2.5559    0.0000 S   0  0  0  0  0  0  0  0  0  0  0  0
    5.1414    2.1434    0.0000 C   0  0  0  0  0  0  0  0  0  0  0  0
    4.4270    2.5559    0.0000 C   0  0  0  0  0  0  0  0  0  0  0  0
    3.7125    2.1434    0.0000 B   0  0  0  0  0  0  0  0  0  0  0  0
    2.9980    1.7309    0.0000 O   0  0  0  0  0  0  0  0  0  0  0  0
    4.1250    1.4289    0.0000 O   0  0  0  0  0  0  0  0  0  0  0  0
    3.3000    2.8579    0.0000 O   0  0  0  0  0  0  0  0  0  0  0  0
    7.9993    2.1434    0.0000 C   0  0  0  0  0  0  0  0  0  0  0  0
    8.7138    2.5559    0.0000 O   0  0  0  0  0  0  0  0  0  0  0  0
    7.9993    1.3184    0.0000 O   0  0  0  0  0  0  0  0  0  0  0  0
  2  1  1  6  0  0  0
  2  3  1  0  0  0  0
  3  4  1  0  0  0  0
  4  5  1  0  0  0  0
  5  6  1  0  0  0  0
  6  7  1  0  0  0  0
  7  8  1  0  0  0  0
  7  9  1  0  0  0  0
  7 10  1  0  0  0  0
  2 11  1  0  0  0  0
 11 12  1  0  0  0  0
 11 13  2  0  0  0  0
M  END
> <DRUGBANK_ID>
DB03731

> <DRUG_GROUPS>
experimental

> <GENERIC_NAME>
S-2-(Boronoethyl)-L-Cysteine

> <CHEMICAL_FORMULA>
C5H13BNO5S

> <MOLECULAR_WEIGHT>
210.036

> <EXACT_MASS>
210.060748687

> <IUPAC_NAME>
(2R)-2-amino-3-{[2-(trihydroxy-$l^{4}-boranyl)ethyl]sulfanyl}propanoic acid

> <IUPAC_TRADITIONAL_NAME>
(2R)-2-amino-3-{[2-(trihydroxy-$l^{4}-boranyl)ethyl]sulfanyl}propanoic acid

> <INCHI_IDENTIFIER>
InChI=1S/C5H13BNO5S/c7-4(5(8)9)3-13-2-1-6(10,11)12/h4,10-12H,1-3,7H2,(H,8,9)/t4-/m0/s1

> <INCHI_KEY>
InChIKey=PTAXROQIMJHCAK-BYPYZUCNSA-N

> <SMILES>
N[C@@H](CSCC[B](O)(O)O)C(O)=O

> <JCHEM_ACCEPTOR_COUNT>
0

> <JCHEM_DONOR_COUNT>
0

> <JCHEM_PHYSIOLOGICAL_CHARGE>
0

> <ALOGPS_LOGP>
-3

> <ALOGPS_LOGS>
-2.3

> <JCHEM_POLARIZABILITY>
20.91

> <JCHEM_POLAR_SURFACE_AREA>
124.01

> <JCHEM_REFRACTIVITY>
44.1

> <JCHEM_ROTATABLE_BOND_COUNT>
6

> <ALOGPS_SOLUBILITY>
1.01e+00 g/l __ 

$$$$
