
  Mrv0541 02231216552D          

 66 67  0  0  1  0            999 V2000
    4.2868  -16.5000    0.0000 C   0  0  0  0  0  0  0  0  0  0  0  0
    5.0013  -16.0875    0.0000 C   0  0  0  0  0  0  0  0  0  0  0  0
    5.7158  -16.5000    0.0000 C   0  0  0  0  0  0  0  0  0  0  0  0
    6.4302  -16.0875    0.0000 C   0  0  0  0  0  0  0  0  0  0  0  0
    7.1447  -16.5000    0.0000 C   0  0  0  0  0  0  0  0  0  0  0  0
    7.8592  -16.0875    0.0000 C   0  0  0  0  0  0  0  0  0  0  0  0
    8.5737  -16.5000    0.0000 C   0  0  0  0  0  0  0  0  0  0  0  0
    9.2881  -16.0875    0.0000 C   0  0  0  0  0  0  0  0  0  0  0  0
   10.0026  -16.5000    0.0000 C   0  0  0  0  0  0  0  0  0  0  0  0
   10.7171  -16.0875    0.0000 C   0  0  0  0  0  0  0  0  0  0  0  0
   11.4315  -16.5000    0.0000 C   0  0  0  0  0  0  0  0  0  0  0  0
   12.1460  -16.0875    0.0000 C   0  0  0  0  0  0  0  0  0  0  0  0
   12.8605  -16.5000    0.0000 C   0  0  0  0  0  0  0  0  0  0  0  0
   13.5749  -16.0875    0.0000 C   0  0  0  0  0  0  0  0  0  0  0  0
   14.2894  -16.5000    0.0000 C   0  0  0  0  0  0  0  0  0  0  0  0
   15.0039  -16.0875    0.0000 C   0  0  0  0  0  0  0  0  0  0  0  0
   15.7184  -16.5000    0.0000 C   0  0  0  0  0  0  0  0  0  0  0  0
   16.4328  -16.0875    0.0000 C   0  0  0  0  0  0  0  0  0  0  0  0
   16.4328  -15.2625    0.0000 O   0  0  0  0  0  0  0  0  0  0  0  0
   17.1473  -16.5000    0.0000 O   0  0  0  0  0  0  0  0  0  0  0  0
   17.8618  -16.0875    0.0000 C   0  0  0  0  0  0  0  0  0  0  0  0
   18.5762  -16.5000    0.0000 C   0  0  1  0  0  0  0  0  0  0  0  0
   18.5762  -17.3250    0.0000 C   0  0  0  0  0  0  0  0  0  0  0  0
   19.2907  -17.7375    0.0000 O   0  0  0  0  0  0  0  0  0  0  0  0
   19.2907  -18.5625    0.0000 C   0  0  1  0  0  0  0  0  0  0  0  0
   20.0052  -18.9750    0.0000 O   0  0  0  0  0  0  0  0  0  0  0  0
   20.0052  -19.8000    0.0000 C   0  0  1  0  0  0  0  0  0  0  0  0
   20.7197  -20.2125    0.0000 C   0  0  0  0  0  0  0  0  0  0  0  0
   21.4341  -19.8000    0.0000 O   0  0  0  0  0  0  0  0  0  0  0  0
   22.1486  -20.2125    0.0000 C   0  0  1  0  0  0  0  0  0  0  0  0
   22.8631  -19.8000    0.0000 O   0  0  0  0  0  0  0  0  0  0  0  0
   23.5775  -20.2125    0.0000 C   0  0  1  0  0  0  0  0  0  0  0  0
   24.2920  -19.8000    0.0000 C   0  0  0  0  0  0  0  0  0  0  0  0
   25.0065  -20.2125    0.0000 O   0  0  0  0  0  0  0  0  0  0  0  0
   23.5775  -21.0375    0.0000 C   0  0  2  0  0  0  0  0  0  0  0  0
   24.2920  -21.4500    0.0000 O   0  0  0  0  0  0  0  0  0  0  0  0
   22.8631  -21.4500    0.0000 C   0  0  1  0  0  0  0  0  0  0  0  0
   22.8631  -22.2750    0.0000 O   0  0  0  0  0  0  0  0  0  0  0  0
   22.1486  -21.0375    0.0000 C   0  0  2  0  0  0  0  0  0  0  0  0
   21.4341  -21.4500    0.0000 O   0  0  0  0  0  0  0  0  0  0  0  0
   19.2907  -20.2125    0.0000 C   0  0  2  0  0  0  0  0  0  0  0  0
   19.2907  -21.0375    0.0000 O   0  0  0  0  0  0  0  0  0  0  0  0
   18.5762  -19.8000    0.0000 C   0  0  1  0  0  0  0  0  0  0  0  0
   17.8618  -20.2125    0.0000 O   0  0  0  0  0  0  0  0  0  0  0  0
   18.5762  -18.9750    0.0000 C   0  0  2  0  0  0  0  0  0  0  0  0
   17.8618  -18.5625    0.0000 O   0  0  0  0  0  0  0  0  0  0  0  0
   19.2907  -16.0875    0.0000 O   0  0  0  0  0  0  0  0  0  0  0  0
   20.0052  -16.5000    0.0000 C   0  0  0  0  0  0  0  0  0  0  0  0
   20.0052  -17.3250    0.0000 O   0  0  0  0  0  0  0  0  0  0  0  0
   20.7197  -16.0875    0.0000 C   0  0  0  0  0  0  0  0  0  0  0  0
   21.4341  -16.5000    0.0000 C   0  0  0  0  0  0  0  0  0  0  0  0
   22.1486  -16.0875    0.0000 C   0  0  0  0  0  0  0  0  0  0  0  0
   22.8631  -16.5000    0.0000 C   0  0  0  0  0  0  0  0  0  0  0  0
   23.5775  -16.0875    0.0000 C   0  0  0  0  0  0  0  0  0  0  0  0
   24.2920  -16.5000    0.0000 C   0  0  0  0  0  0  0  0  0  0  0  0
   25.0065  -16.0875    0.0000 C   0  0  0  0  0  0  0  0  0  0  0  0
   25.7210  -16.5000    0.0000 C   0  0  0  0  0  0  0  0  0  0  0  0
   26.4354  -16.0875    0.0000 C   0  0  0  0  0  0  0  0  0  0  0  0
   27.1499  -16.5000    0.0000 C   0  0  0  0  0  0  0  0  0  0  0  0
   27.8644  -16.0875    0.0000 C   0  0  0  0  0  0  0  0  0  0  0  0
   28.5788  -16.5000    0.0000 C   0  0  0  0  0  0  0  0  0  0  0  0
   29.2933  -16.0875    0.0000 C   0  0  0  0  0  0  0  0  0  0  0  0
   30.0078  -16.5000    0.0000 C   0  0  0  0  0  0  0  0  0  0  0  0
   30.7223  -16.0875    0.0000 C   0  0  0  0  0  0  0  0  0  0  0  0
   31.4367  -16.5000    0.0000 C   0  0  0  0  0  0  0  0  0  0  0  0
   32.1512  -16.0875    0.0000 C   0  0  0  0  0  0  0  0  0  0  0  0
  1  2  1  0  0  0  0
  2  3  1  0  0  0  0
  3  4  1  0  0  0  0
  4  5  1  0  0  0  0
  5  6  1  0  0  0  0
  6  7  1  0  0  0  0
  7  8  1  0  0  0  0
  8  9  1  0  0  0  0
  9 10  1  0  0  0  0
 10 11  1  0  0  0  0
 11 12  1  0  0  0  0
 12 13  1  0  0  0  0
 13 14  1  0  0  0  0
 14 15  1  0  0  0  0
 15 16  1  0  0  0  0
 16 17  1  0  0  0  0
 17 18  1  0  0  0  0
 18 19  2  0  0  0  0
 18 20  1  0  0  0  0
 20 21  1  0  0  0  0
 21 22  1  0  0  0  0
 22 23  1  0  0  0  0
 23 24  1  0  0  0  0
 25 24  1  1  0  0  0
 25 26  1  0  0  0  0
 26 27  1  0  0  0  0
 27 28  1  1  0  0  0
 28 29  1  0  0  0  0
 30 29  1  1  0  0  0
 30 31  1  0  0  0  0
 31 32  1  0  0  0  0
 32 33  1  1  0  0  0
 33 34  1  0  0  0  0
 32 35  1  0  0  0  0
 35 36  1  6  0  0  0
 35 37  1  0  0  0  0
 37 38  1  1  0  0  0
 37 39  1  0  0  0  0
 30 39  1  0  0  0  0
 39 40  1  6  0  0  0
 27 41  1  0  0  0  0
 41 42  1  6  0  0  0
 41 43  1  0  0  0  0
 43 44  1  1  0  0  0
 43 45  1  0  0  0  0
 25 45  1  0  0  0  0
 45 46  1  6  0  0  0
 22 47  1  6  0  0  0
 47 48  1  0  0  0  0
 48 49  2  0  0  0  0
 48 50  1  0  0  0  0
 50 51  1  0  0  0  0
 51 52  1  0  0  0  0
 52 53  1  0  0  0  0
 53 54  1  0  0  0  0
 54 55  1  0  0  0  0
 55 56  1  0  0  0  0
 56 57  1  0  0  0  0
 57 58  1  0  0  0  0
 58 59  1  0  0  0  0
 59 60  1  0  0  0  0
 60 61  1  0  0  0  0
 61 62  1  0  0  0  0
 62 63  1  0  0  0  0
 63 64  1  0  0  0  0
 64 65  1  0  0  0  0
 65 66  1  0  0  0  0
M  END
> <DRUGBANK_ID>
DB03426

> <DRUG_GROUPS>
experimental

> <GENERIC_NAME>
Digalactosyl Diacyl Glycerol (Dgdg)

> <CHEMICAL_FORMULA>
C51H96O15

> <MOLECULAR_WEIGHT>
949.2989

> <EXACT_MASS>
948.674922402

> <IUPAC_NAME>
(2R)-1-(octadecanoyloxy)-3-{[(2S,3S,4R,5R,6S)-3,4,5-trihydroxy-6-({[(2S,3S,4R,5R,6S)-3,4,5-trihydroxy-6-(hydroxymethyl)oxan-2-yl]oxy}methyl)oxan-2-yl]oxy}propan-2-yl octadecanoate

> <IUPAC_TRADITIONAL_NAME>
(2R)-1-(octadecanoyloxy)-3-{[(2S,3S,4R,5R,6S)-3,4,5-trihydroxy-6-({[(2S,3S,4R,5R,6S)-3,4,5-trihydroxy-6-(hydroxymethyl)oxan-2-yl]oxy}methyl)oxan-2-yl]oxy}propan-2-yl octadecanoate

> <INCHI_IDENTIFIER>
InChI=1S/C51H96O15/c1-3-5-7-9-11-13-15-17-19-21-23-25-27-29-31-33-42(53)61-36-39(64-43(54)34-32-30-28-26-24-22-20-18-16-14-12-10-8-6-4-2)37-62-50-49(60)47(58)45(56)41(66-50)38-63-51-48(59)46(57)44(55)40(35-52)65-51/h39-41,44-52,55-60H,3-38H2,1-2H3/t39-,40-,41-,44-,45-,46+,47+,48-,49-,50-,51-/m0/s1

> <INCHI_KEY>
InChIKey=LDQFLSUQYHBXSX-QFTMNUCUSA-N

> <SMILES>
CCCCCCCCCCCCCCCCCC(=O)OC[C@@H](CO[C@H]1O[C@@H](CO[C@H]2O[C@@H](CO)[C@H](O)[C@@H](O)[C@@H]2O)[C@H](O)[C@@H](O)[C@@H]1O)OC(=O)CCCCCCCCCCCCCCCCC

> <JCHEM_ACCEPTOR_COUNT>
13

> <JCHEM_DONOR_COUNT>
7

> <JCHEM_ACIDIC_PKA>
11.91

> <JCHEM_BASIC_PKA>
-3

> <JCHEM_PHYSIOLOGICAL_CHARGE>
0

> <ALOGPS_LOGP>
7.09

> <JCHEM_LOGP>
10.24

> <ALOGPS_LOGS>
-5.7

> <JCHEM_POLARIZABILITY>
115.54

> <JCHEM_POLAR_SURFACE_AREA>
231.13

> <JCHEM_REFRACTIVITY>
250.93

> <JCHEM_ROTATABLE_BOND_COUNT>
44

> <ALOGPS_SOLUBILITY>
2.08e-03 g/l __ 

$$$$
