
  Mrv0541 02231216422D          

 36 39  0  0  1  0            999 V2000
   -8.2795   -2.6054    0.0000 C   0  0  0  0  0  0  0  0  0  0  0  0
   -7.4948   -2.3504    0.0000 N   0  0  0  0  0  0  0  0  0  0  0  0
   -7.3233   -1.5435    0.0000 C   0  0  0  0  0  0  0  0  0  0  0  0
   -7.9364   -0.9914    0.0000 C   0  0  0  0  0  0  0  0  0  0  0  0
   -7.7649   -0.1845    0.0000 C   0  0  0  0  0  0  0  0  0  0  0  0
   -6.9803    0.0705    0.0000 C   0  0  0  0  0  0  0  0  0  0  0  0
   -6.3672   -0.4816    0.0000 C   0  0  0  0  0  0  0  0  0  0  0  0
   -6.5387   -1.2885    0.0000 C   0  0  0  0  0  0  0  0  0  0  0  0
   -5.9256   -1.8406    0.0000 C   0  0  0  0  0  0  0  0  0  0  0  0
   -6.0971   -2.6475    0.0000 O   0  0  0  0  0  0  0  0  0  0  0  0
   -5.1410   -1.5856    0.0000 O   0  0  0  0  0  0  0  0  0  0  0  0
   -4.9695   -0.7787    0.0000 C   0  0  2  0  0  0  0  0  0  0  0  0
   -5.5215   -0.1656    0.0000 C   0  0  0  0  0  0  0  0  0  0  0  0
   -5.1090    0.5489    0.0000 C   0  0  1  0  0  0  0  0  0  0  0  0
   -4.3020    0.3774    0.0000 O   0  0  0  0  0  0  0  0  0  0  0  0
   -4.2158   -0.4431    0.0000 C   0  0  1  0  0  0  0  0  0  0  0  0
   -3.5013   -0.8556    0.0000 C   0  0  0  0  0  0  0  0  0  0  0  0
   -2.7868   -0.4431    0.0000 O   0  0  0  0  0  0  0  0  0  0  0  0
   -2.0724   -0.8556    0.0000 P   0  0  2  0  0  0  0  0  0  0  0  0
   -2.4849   -1.5701    0.0000 O   0  0  0  0  0  0  0  0  0  0  0  0
   -1.6599   -0.1411    0.0000 O   0  0  0  0  0  0  0  0  0  0  0  0
   -1.3579   -1.2681    0.0000 O   0  0  0  0  0  0  0  0  0  0  0  0
   -0.6434   -0.8556    0.0000 P   0  0  0  0  0  0  0  0  0  0  0  0
    0.0710   -0.4431    0.0000 O   0  0  0  0  0  0  0  0  0  0  0  0
   -0.2309   -1.5701    0.0000 O   0  0  0  0  0  0  0  0  0  0  0  0
   -1.0559   -0.1411    0.0000 O   0  0  0  0  0  0  0  0  0  0  0  0
   -5.4445    1.3026    0.0000 N   0  0  0  0  0  0  0  0  0  0  0  0
   -5.0320    2.0171    0.0000 C   0  0  0  0  0  0  0  0  0  0  0  0
   -5.5841    2.6302    0.0000 N   0  0  0  0  0  0  0  0  0  0  0  0
   -6.3378    2.2946    0.0000 C   0  0  0  0  0  0  0  0  0  0  0  0
   -6.2515    1.4741    0.0000 C   0  0  0  0  0  0  0  0  0  0  0  0
   -6.9190    0.9892    0.0000 N   0  0  0  0  0  0  0  0  0  0  0  0
   -7.6726    1.3247    0.0000 C   0  0  0  0  0  0  0  0  0  0  0  0
   -7.7589    2.1452    0.0000 N   0  0  0  0  0  0  0  0  0  0  0  0
   -7.0914    2.6302    0.0000 C   0  0  0  0  0  0  0  0  0  0  0  0
   -7.1777    3.4506    0.0000 N   0  0  0  0  0  0  0  0  0  0  0  0
  1  2  1  0  0  0  0
  2  3  1  0  0  0  0
  3  4  2  0  0  0  0
  4  5  1  0  0  0  0
  5  6  2  0  0  0  0
  6  7  1  0  0  0  0
  7  8  2  0  0  0  0
  3  8  1  0  0  0  0
  8  9  1  0  0  0  0
  9 10  2  0  0  0  0
  9 11  1  0  0  0  0
 12 11  1  6  0  0  0
 12 13  1  0  0  0  0
 13 14  1  0  0  0  0
 14 15  1  0  0  0  0
 15 16  1  0  0  0  0
 12 16  1  0  0  0  0
 16 17  1  1  0  0  0
 17 18  1  0  0  0  0
 19 18  1  6  0  0  0
 19 20  1  1  0  0  0
 19 21  2  0  0  0  0
 19 22  1  0  0  0  0
 22 23  1  0  0  0  0
 23 24  1  0  0  0  0
 23 25  1  0  0  0  0
 23 26  2  0  0  0  0
 14 27  1  6  0  0  0
 27 28  1  0  0  0  0
 28 29  2  0  0  0  0
 29 30  1  0  0  0  0
 30 31  2  0  0  0  0
 27 31  1  0  0  0  0
 31 32  1  0  0  0  0
 32 33  2  0  0  0  0
 33 34  1  0  0  0  0
 34 35  2  0  0  0  0
 30 35  1  0  0  0  0
 35 36  1  0  0  0  0
M  END
> <DRUGBANK_ID>
DB03126

> <DRUG_GROUPS>
experimental

> <GENERIC_NAME>
Mant-Adp

> <CHEMICAL_FORMULA>
C18H22N6O10P2

> <MOLECULAR_WEIGHT>
544.349

> <EXACT_MASS>
544.087263978

> <IUPAC_NAME>
[({[(2S,3R,5R)-5-(6-amino-9H-purin-9-yl)-3-{[2-(methylamino)phenyl]carbonyloxy}oxolan-2-yl]methoxy}(hydroxy)phosphoryl)oxy]phosphonic acid

> <IUPAC_TRADITIONAL_NAME>
{[(2S,3R,5R)-5-(6-aminopurin-9-yl)-3-{[2-(methylamino)phenyl]carbonyloxy}oxolan-2-yl]methoxy(hydroxy)phosphoryl}oxyphosphonic acid

> <INCHI_IDENTIFIER>
InChI=1S/C18H22N6O10P2/c1-20-11-5-3-2-4-10(11)18(25)33-12-6-14(24-9-23-15-16(19)21-8-22-17(15)24)32-13(12)7-31-36(29,30)34-35(26,27)28/h2-5,8-9,12-14,20H,6-7H2,1H3,(H,29,30)(H2,19,21,22)(H2,26,27,28)/t12-,13+,14-/m1/s1

> <INCHI_KEY>
InChIKey=QPKUEBLEGWBRHC-HZSPNIEDSA-N

> <SMILES>
CNC1=CC=CC=C1C(=O)O[C@@H]1C[C@@H](O[C@H]1CO[P@](O)(=O)OP(O)(O)=O)N1C=NC2=C1N=CN=C2N

> <JCHEM_ACCEPTOR_COUNT>
12

> <JCHEM_DONOR_COUNT>
5

> <JCHEM_ACIDIC_PKA>
2.25

> <JCHEM_BASIC_PKA>
5.01

> <JCHEM_PHYSIOLOGICAL_CHARGE>
-2

> <ALOGPS_LOGP>
0.19

> <JCHEM_LOGP>
-1.9

> <ALOGPS_LOGS>
-2.5

> <JCHEM_POLARIZABILITY>
48.29

> <JCHEM_POLAR_SURFACE_AREA>
230.47

> <JCHEM_REFRACTIVITY>
123.45

> <JCHEM_ROTATABLE_BOND_COUNT>
10

> <ALOGPS_SOLUBILITY>
1.91e+00 g/l __ 

$$$$
