
  Mrv0541 02231216592D          

 27 29  0  0  1  0            999 V2000
   -1.8505    2.3190    0.0000 O   0  0  0  0  0  0  0  0  0  0  0  0
   -1.1831    1.8341    0.0000 C   0  0  1  0  0  0  0  0  0  0  0  0
   -0.3984    2.0890    0.0000 C   0  0  2  0  0  0  0  0  0  0  0  0
   -0.1435    2.8736    0.0000 C   0  0  0  0  0  0  0  0  0  0  0  0
   -0.6955    3.4867    0.0000 O   0  0  0  0  0  0  0  0  0  0  0  0
   -0.4406    4.2713    0.0000 P   0  0  0  0  0  0  0  0  0  0  0  0
   -0.1857    5.0560    0.0000 O   0  0  0  0  0  0  0  0  0  0  0  0
   -1.2252    4.5263    0.0000 O   0  0  0  0  0  0  0  0  0  0  0  0
    0.3440    4.0164    0.0000 O   0  0  0  0  0  0  0  0  0  0  0  0
    0.0865    1.4216    0.0000 O   0  0  0  0  0  0  0  0  0  0  0  0
   -0.3984    0.7541    0.0000 C   0  0  2  0  0  0  0  0  0  0  0  0
   -1.1831    1.0091    0.0000 C   0  0  2  0  0  0  0  0  0  0  0  0
   -1.8505    0.5241    0.0000 O   0  0  0  0  0  0  0  0  0  0  0  0
   -0.1435   -0.0305    0.0000 N   0  0  0  0  0  0  0  0  0  0  0  0
   -0.6284   -0.6979    0.0000 C   0  0  0  0  0  0  0  0  0  0  0  0
   -0.1435   -1.3654    0.0000 N   0  0  0  0  0  0  0  0  0  0  0  0
    0.6411   -1.1104    0.0000 C   0  0  0  0  0  0  0  0  0  0  0  0
    0.6411   -0.2854    0.0000 C   0  0  0  0  0  0  0  0  0  0  0  0
    1.3556    0.1271    0.0000 N   0  0  0  0  0  0  0  0  0  0  0  0
    2.0701   -0.2854    0.0000 C   0  0  0  0  0  0  0  0  0  0  0  0
    2.0701   -1.1104    0.0000 N   0  0  0  0  0  0  0  0  0  0  0  0
    1.3556   -1.5229    0.0000 C   0  0  0  0  0  0  0  0  0  0  0  0
    1.3556   -2.3479    0.0000 O   0  0  0  0  0  0  0  0  0  0  0  0
    2.0701   -2.7604    0.0000 P   0  0  0  0  0  0  0  0  0  0  0  0
    2.7845   -3.1729    0.0000 O   0  0  0  0  0  0  0  0  0  0  0  0
    1.6576   -3.4749    0.0000 O   0  0  0  0  0  0  0  0  0  0  0  0
    2.4826   -2.0460    0.0000 O   0  0  0  0  0  0  0  0  0  0  0  0
  2  1  1  1  0  0  0
  2  3  1  0  0  0  0
  3  4  1  6  0  0  0
  4  5  1  0  0  0  0
  5  6  1  0  0  0  0
  6  7  1  0  0  0  0
  6  8  1  0  0  0  0
  6  9  2  0  0  0  0
  3 10  1  0  0  0  0
 10 11  1  0  0  0  0
 11 12  1  0  0  0  0
  2 12  1  0  0  0  0
 12 13  1  6  0  0  0
 11 14  1  1  0  0  0
 14 15  1  0  0  0  0
 15 16  2  0  0  0  0
 16 17  1  0  0  0  0
 17 18  2  0  0  0  0
 14 18  1  0  0  0  0
 18 19  1  0  0  0  0
 19 20  2  0  0  0  0
 20 21  1  0  0  0  0
 21 22  2  0  0  0  0
 17 22  1  0  0  0  0
 22 23  1  0  0  0  0
 23 24  1  0  0  0  0
 24 25  1  0  0  0  0
 24 26  1  0  0  0  0
 24 27  2  0  0  0  0
M  END
> <DRUGBANK_ID>
DB03510

> <DRUG_GROUPS>
experimental

> <GENERIC_NAME>
6-O-Phosphoryl Inosine Monophosphate

> <CHEMICAL_FORMULA>
C10H14N4O11P2

> <MOLECULAR_WEIGHT>
428.1859

> <EXACT_MASS>
428.013430334

> <IUPAC_NAME>
{[(2S,3R,4R,5R)-3,4-dihydroxy-5-[6-(phosphonooxy)-9H-purin-9-yl]oxolan-2-yl]methoxy}phosphonic acid

> <IUPAC_TRADITIONAL_NAME>
[(2S,3R,4R,5R)-3,4-dihydroxy-5-[6-(phosphonooxy)purin-9-yl]oxolan-2-yl]methoxyphosphonic acid

> <INCHI_IDENTIFIER>
InChI=1S/C10H14N4O11P2/c15-6-4(1-23-26(17,18)19)24-10(7(6)16)14-3-13-5-8(14)11-2-12-9(5)25-27(20,21)22/h2-4,6-7,10,15-16H,1H2,(H2,17,18,19)(H2,20,21,22)/t4-,6-,7+,10+/m0/s1

> <INCHI_KEY>
InChIKey=RXRZOKQPANIEDW-FCIPNVEPSA-N

> <SMILES>
O[C@H]1[C@H](COP(O)(O)=O)O[C@H]([C@@H]1O)N1C=NC2=C1N=CN=C2OP(O)(O)=O

> <JCHEM_ACCEPTOR_COUNT>
12

> <JCHEM_DONOR_COUNT>
6

> <JCHEM_ACIDIC_PKA>
0.69

> <JCHEM_BASIC_PKA>
2.12

> <JCHEM_PHYSIOLOGICAL_CHARGE>
-4

> <ALOGPS_LOGP>
-1.6

> <JCHEM_LOGP>
-3.6

> <ALOGPS_LOGS>
-2.1

> <JCHEM_POLARIZABILITY>
33.79

> <JCHEM_POLAR_SURFACE_AREA>
226.81

> <JCHEM_REFRACTIVITY>
82.22

> <JCHEM_ROTATABLE_BOND_COUNT>
6

> <ALOGPS_SOLUBILITY>
3.37e+00 g/l __ 

$$$$
