[NO NAME]
  Mrv0541 04211221232D          
Created with ChemWriter - http://chemwriter.com
 11 12  0  0  1  0            999 V2000
   -0.7145    0.4125    0.0000 C   0  0  0  0  0  0  0  0  0  0  0  0
   -0.7145   -0.4125    0.0000 C   0  0  0  0  0  0  0  0  0  0  0  0
    0.7145    0.4125    0.0000 O   0  0  0  0  0  0  0  0  0  0  0  0
    1.5395   -0.4125    0.0000 C   0  0  0  0  0  0  0  0  0  0  0  0
    0.7145   -0.4125    0.0000 C   0  0  0  0  0  0  0  0  0  0  0  0
    1.1270   -1.1270    0.0000 C   0  0  0  0  0  0  0  0  0  0  0  0
    0.0000    0.8250    0.0000 C   0  0  1  0  0  0  0  0  0  0  0  0
    0.0000    1.6500    0.0000 C   0  0  0  0  0  0  0  0  0  0  0  0
    0.0000   -0.8250    0.0000 C   0  0  1  0  0  0  0  0  0  0  0  0
   -0.3000    0.3000    0.0000 C   0  0  0  0  0  0  0  0  0  0  0  0
   -0.3000   -0.3000    0.0000 C   0  0  0  0  0  0  0  0  0  0  0  0
  9  5  1  0  0  0  0
  9  2  1  0  0  0  0
  5  3  1  0  0  0  0
  3  7  1  0  0  0  0
  7  1  1  0  0  0  0
  1  2  1  0  0  0  0
  7 10  1  1  0  0  0
  9 11  1  1  0  0  0
 11 10  1  0  0  0  0
  5  4  1  0  0  0  0
  5  6  1  0  0  0  0
  7  8  1  0  0  0  0
M  END
> <DRUGBANK_ID>
DB03852

> <DRUG_GROUPS>
nutraceutical

> <GENERIC_NAME>
Eucalyptol

> <SYNONYMS>
1,8-Cineole; 1,8-epoxy-p-menthane; 1,8-oxido-p-menthane; cajeputol; cineole

> <BRANDS>


> <CHEMICAL_FORMULA>
C10H18O

> <MOLECULAR_WEIGHT>
154.2493

> <EXACT_MASS>
154.135765198

> <IUPAC_NAME>
(1s,4s)-1,3,3-trimethyl-2-oxabicyclo[2.2.2]octane

> <IUPAC_TRADITIONAL_NAME>
1,8-cineole

> <INCHI_IDENTIFIER>
InChI=1S/C10H18O/c1-9(2)8-4-6-10(3,11-9)7-5-8/h8H,4-7H2,1-3H3/t8-,10+

> <INCHI_KEY>
InChIKey=WEEGYLXZBRQIMU-WAAGHKOSSA-N

> <SMILES>
C[C@@]12CC[C@@H](CC1)C(C)(C)O2

> <JCHEM_ACCEPTOR_COUNT>
1

> <JCHEM_DONOR_COUNT>
0

> <JCHEM_BASIC_PKA>
-4.2

> <JCHEM_PHYSIOLOGICAL_CHARGE>
0

> <ALOGPS_LOGP>
3.36

> <JCHEM_LOGP>
2.35

> <ALOGPS_LOGS>
-3.8

> <JCHEM_POLARIZABILITY>
18.54

> <JCHEM_POLAR_SURFACE_AREA>
9.23

> <JCHEM_REFRACTIVITY>
45.86

> <JCHEM_ROTATABLE_BOND_COUNT>
0

> <ALOGPS_SOLUBILITY>
2.25e-02 g/l __ 

$$$$
