
  Mrv0541 02231216392D          

 12 12  0  0  0  0            999 V2000
    3.5724   -0.4125    0.0000 O   0  0  0  0  0  0  0  0  0  0  0  0
    2.8579    0.0000    0.0000 C   0  0  0  0  0  0  0  0  0  0  0  0
    2.8579    0.8250    0.0000 O   0  0  0  0  0  0  0  0  0  0  0  0
    2.1434   -0.4125    0.0000 C   0  0  0  0  0  0  0  0  0  0  0  0
    1.4289    0.0000    0.0000 C   0  0  0  0  0  0  0  0  0  0  0  0
    0.7145   -0.4125    0.0000 C   0  0  0  0  0  0  0  0  0  0  0  0
    0.0000    0.0000    0.0000 C   0  0  0  0  0  0  0  0  0  0  0  0
   -0.7145   -0.4125    0.0000 O   0  0  0  0  0  0  0  0  0  0  0  0
    0.0000    0.8250    0.0000 N   0  0  0  0  0  0  0  0  0  0  0  0
    0.7145    1.2375    0.0000 C   0  0  0  0  0  0  0  0  0  0  0  0
    0.7145    2.0625    0.0000 O   0  0  0  0  0  0  0  0  0  0  0  0
    1.4289    0.8250    0.0000 N   0  0  0  0  0  0  0  0  0  0  0  0
  1  2  1  0  0  0  0
  2  3  2  0  0  0  0
  2  4  1  0  0  0  0
  4  5  1  0  0  0  0
  5  6  2  0  0  0  0
  6  7  1  0  0  0  0
  7  8  2  0  0  0  0
  7  9  1  0  0  0  0
  9 10  1  0  0  0  0
 10 11  2  0  0  0  0
 10 12  1  0  0  0  0
  5 12  1  0  0  0  0
M  END
> <DRUGBANK_ID>
DB03048

> <DRUG_GROUPS>
experimental

> <GENERIC_NAME>
6-Carboxymethyluracil

> <CHEMICAL_FORMULA>
C6H6N2O4

> <MOLECULAR_WEIGHT>
170.1228

> <EXACT_MASS>
170.03275669

> <IUPAC_NAME>
2-(2,6-dioxo-1,2,3,6-tetrahydropyrimidin-4-yl)acetic acid

> <IUPAC_TRADITIONAL_NAME>
6-carboxymethyluracil

> <INCHI_IDENTIFIER>
InChI=1S/C6H6N2O4/c9-4-1-3(2-5(10)11)7-6(12)8-4/h1H,2H2,(H,10,11)(H2,7,8,9,12)

> <INCHI_KEY>
InChIKey=NQAUNZZEYKWTHM-UHFFFAOYSA-N

> <SMILES>
OC(=O)CC1=CC(=O)NC(=O)N1

> <JCHEM_ACCEPTOR_COUNT>
4

> <JCHEM_DONOR_COUNT>
3

> <JCHEM_ACIDIC_PKA>
3.77

> <JCHEM_BASIC_PKA>
-5.3

> <JCHEM_PHYSIOLOGICAL_CHARGE>
-1

> <ALOGPS_LOGP>
-0.83

> <JCHEM_LOGP>
-1.3

> <ALOGPS_LOGS>
-1.6

> <JCHEM_POLARIZABILITY>
14.31

> <JCHEM_POLAR_SURFACE_AREA>
95.5

> <JCHEM_REFRACTIVITY>
37.82

> <JCHEM_ROTATABLE_BOND_COUNT>
2

> <ALOGPS_SOLUBILITY>
4.00e+00 g/l __ 

$$$$
