
  Mrv0541 02231216522D          

 42 47  0  0  1  0            999 V2000
   -8.1839    3.6615    0.0000 C   0  0  0  0  0  0  0  0  0  0  0  0
   -7.5165    4.1464    0.0000 O   0  0  0  0  0  0  0  0  0  0  0  0
   -6.7628    3.8108    0.0000 C   0  0  0  0  0  0  0  0  0  0  0  0
   -6.0954    4.2958    0.0000 C   0  0  0  0  0  0  0  0  0  0  0  0
   -5.3417    3.9602    0.0000 C   0  0  0  0  0  0  0  0  0  0  0  0
   -5.2554    3.1397    0.0000 C   0  0  0  0  0  0  0  0  0  0  0  0
   -5.9229    2.6548    0.0000 C   0  0  0  0  0  0  0  0  0  0  0  0
   -5.8366    1.8343    0.0000 O   0  0  0  0  0  0  0  0  0  0  0  0
   -6.5041    1.3494    0.0000 C   0  0  0  0  0  0  0  0  0  0  0  0
   -6.6766    2.9904    0.0000 C   0  0  0  0  0  0  0  0  0  0  0  0
   -4.6742    4.4451    0.0000 C   0  0  0  0  0  0  0  0  0  0  0  0
   -4.7605    5.2656    0.0000 O   0  0  0  0  0  0  0  0  0  0  0  0
   -3.9206    4.1096    0.0000 N   0  0  0  0  0  0  0  0  0  0  0  0
   -3.2531    4.5945    0.0000 C   0  0  2  0  0  0  0  0  0  0  0  0
   -3.2531    5.4195    0.0000 C   0  0  1  0  0  0  0  0  0  0  0  0
   -3.9206    5.9044    0.0000 O   0  0  0  0  0  0  0  0  0  0  0  0
   -2.4685    5.6744    0.0000 C   0  0  2  0  0  0  0  0  0  0  0  0
   -2.2136    6.4591    0.0000 C   0  0  0  0  0  0  0  0  0  0  0  0
   -1.4066    6.6306    0.0000 O   0  0  0  0  0  0  0  0  0  0  0  0
   -1.9836    5.0070    0.0000 O   0  0  0  0  0  0  0  0  0  0  0  0
   -2.4685    4.3396    0.0000 C   0  0  1  0  0  0  0  0  0  0  0  0
   -2.2136    3.5549    0.0000 N   0  0  0  0  0  0  0  0  0  0  0  0
   -2.6985    2.8875    0.0000 C   0  0  0  0  0  0  0  0  0  0  0  0
   -2.2136    2.2201    0.0000 N   0  0  0  0  0  0  0  0  0  0  0  0
   -1.4289    2.4750    0.0000 C   0  0  0  0  0  0  0  0  0  0  0  0
   -1.4289    3.3000    0.0000 C   0  0  0  0  0  0  0  0  0  0  0  0
   -0.7145    3.7125    0.0000 N   0  0  0  0  0  0  0  0  0  0  0  0
    0.0000    3.3000    0.0000 C   0  0  0  0  0  0  0  0  0  0  0  0
    0.0000    2.4750    0.0000 N   0  0  0  0  0  0  0  0  0  0  0  0
   -0.7145    2.0625    0.0000 C   0  0  0  0  0  0  0  0  0  0  0  0
   -0.7145    1.2375    0.0000 N   0  0  0  0  0  0  0  0  0  0  0  0
    0.0000    0.8250    0.0000 C   0  0  0  0  0  0  0  0  0  0  0  0
    0.0000    0.0000    0.0000 C   0  0  0  0  0  0  0  0  0  0  0  0
   -0.7145   -0.4125    0.0000 C   0  0  0  0  0  0  0  0  0  0  0  0
   -0.7145   -1.2375    0.0000 C   0  0  0  0  0  0  0  0  0  0  0  0
    0.0000   -1.6500    0.0000 C   0  0  0  0  0  0  0  0  0  0  0  0
    0.7145   -1.2375    0.0000 C   0  0  0  0  0  0  0  0  0  0  0  0
    0.7145   -0.4125    0.0000 C   0  0  0  0  0  0  0  0  0  0  0  0
    1.4289    0.0000    0.0000 C   0  0  0  0  0  0  0  0  0  0  0  0
    2.1434   -0.4125    0.0000 C   0  0  0  0  0  0  0  0  0  0  0  0
    2.1434   -1.2375    0.0000 C   0  0  0  0  0  0  0  0  0  0  0  0
    1.4289   -1.6500    0.0000 C   0  0  0  0  0  0  0  0  0  0  0  0
  1  2  1  0  0  0  0
  2  3  1  0  0  0  0
  3  4  2  0  0  0  0
  4  5  1  0  0  0  0
  5  6  2  0  0  0  0
  6  7  1  0  0  0  0
  7  8  1  0  0  0  0
  8  9  1  0  0  0  0
  7 10  2  0  0  0  0
  3 10  1  0  0  0  0
  5 11  1  0  0  0  0
 11 12  2  0  0  0  0
 11 13  1  0  0  0  0
 14 13  1  6  0  0  0
 14 15  1  0  0  0  0
 15 16  1  1  0  0  0
 15 17  1  0  0  0  0
 17 18  1  6  0  0  0
 18 19  1  0  0  0  0
 17 20  1  0  0  0  0
 20 21  1  0  0  0  0
 14 21  1  0  0  0  0
 21 22  1  1  0  0  0
 22 23  1  0  0  0  0
 23 24  2  0  0  0  0
 24 25  1  0  0  0  0
 25 26  2  0  0  0  0
 22 26  1  0  0  0  0
 26 27  1  0  0  0  0
 27 28  2  0  0  0  0
 28 29  1  0  0  0  0
 29 30  2  0  0  0  0
 25 30  1  0  0  0  0
 30 31  1  0  0  0  0
 31 32  1  0  0  0  0
 32 33  1  0  0  0  0
 33 34  2  0  0  0  0
 34 35  1  0  0  0  0
 35 36  2  0  0  0  0
 36 37  1  0  0  0  0
 37 38  2  0  0  0  0
 33 38  1  0  0  0  0
 38 39  1  0  0  0  0
 39 40  2  0  0  0  0
 40 41  1  0  0  0  0
 41 42  2  0  0  0  0
 37 42  1  0  0  0  0
M  END
> <DRUGBANK_ID>
DB03331

> <DRUG_GROUPS>
experimental

> <GENERIC_NAME>
N-Naphthalen-1-Ylmethyl-2'-[3,5-Dimethoxybenzamido]-2'-Deoxy-Adenosine

> <CHEMICAL_FORMULA>
C30H30N6O6

> <MOLECULAR_WEIGHT>
570.5958

> <EXACT_MASS>
570.222682722

> <IUPAC_NAME>
N-[(2R,3R,4R,5S)-4-hydroxy-5-(hydroxymethyl)-2-{6-[(naphthalen-1-ylmethyl)amino]-9H-purin-9-yl}oxolan-3-yl]-3,5-dimethoxybenzamide

> <IUPAC_TRADITIONAL_NAME>
N-[(2R,3R,4R,5S)-4-hydroxy-5-(hydroxymethyl)-2-{6-[(naphthalen-1-ylmethyl)amino]purin-9-yl}oxolan-3-yl]-3,5-dimethoxybenzamide

> <INCHI_IDENTIFIER>
InChI=1S/C30H30N6O6/c1-40-20-10-19(11-21(12-20)41-2)29(39)35-24-26(38)23(14-37)42-30(24)36-16-34-25-27(32-15-33-28(25)36)31-13-18-8-5-7-17-6-3-4-9-22(17)18/h3-12,15-16,23-24,26,30,37-38H,13-14H2,1-2H3,(H,35,39)(H,31,32,33)/t23-,24+,26-,30+/m0/s1

> <INCHI_KEY>
InChIKey=OARVXDFNTLYMCJ-OYILCWTOSA-N

> <SMILES>
COC1=CC(=CC(OC)=C1)C(=O)N[C@@H]1[C@@H](O)[C@H](CO)O[C@H]1N1C=NC2=C1N=CN=C2NCC1=CC=CC2=C1C=CC=C2

> <JCHEM_ACCEPTOR_COUNT>
10

> <JCHEM_DONOR_COUNT>
4

> <JCHEM_ACIDIC_PKA>
13.3

> <JCHEM_BASIC_PKA>
4.85

> <JCHEM_PHYSIOLOGICAL_CHARGE>
0

> <ALOGPS_LOGP>
2.62

> <JCHEM_LOGP>
2.18

> <ALOGPS_LOGS>
-4.5

> <JCHEM_POLARIZABILITY>
59.93

> <JCHEM_POLAR_SURFACE_AREA>
152.88

> <JCHEM_REFRACTIVITY>
154.45

> <JCHEM_ROTATABLE_BOND_COUNT>
9

> <ALOGPS_SOLUBILITY>
1.82e-02 g/l __ 

$$$$
