
  Mrv0541 02231217112D          

 41 44  0  0  1  0            999 V2000
   -3.5724   -2.8875    0.0000 O    0  0  0  0  0  0  0  0  0  0  0  0
   -3.5724   -2.0625    0.0000 C    0  0  0  0  0  0  0  0  0  0  0  0
   -4.2868   -1.6500    0.0000 O    0  0  0  0  0  0  0  0  0  0  0  0
   -2.8579   -1.6500    0.0000 C    0  0  0  0  0  0  0  0  0  0  0  0
   -2.8579   -0.8250    0.0000 C    0  0  0  0  0  0  0  0  0  0  0  0
   -3.5724   -0.4125    0.0000 C    0  0  0  0  0  0  0  0  0  0  0  0
   -3.5724    0.4125    0.0000 C    0  0  0  0  0  0  0  0  0  0  0  0
   -2.8579    0.8250    0.0000 C    0  0  0  0  0  0  0  0  0  0  0  0
   -2.1434    0.4125    0.0000 C    0  0  0  0  0  0  0  0  0  0  0  0
   -1.4289    0.8250    0.0000 O    0  0  0  0  0  0  0  0  0  0  0  0
   -0.7145    0.4125    0.0000 C    0  0  0  0  0  0  0  0  0  0  0  0
    0.0000    0.8250    0.0000 C    0  0  0  0  0  0  0  0  0  0  0  0
    0.7145    0.4125    0.0000 C    0  0  0  0  0  0  0  0  0  0  0  0
    1.4289    0.8250    0.0000 N    0  0  0  0  0  0  0  0  0  0  0  0
    2.1434    0.4125    0.0000 C    0  0  0  0  0  0  0  0  0  0  0  0
    2.8579    0.8250    0.0000 C    0  0  1  0  0  0  0  0  0  0  0  0
    3.5724    0.4125    0.0000 C    0  0  0  0  0  0  0  0  0  0  0  0
    4.2868    0.8250    0.0000 C    0  0  0  0  0  0  0  0  0  0  0  0
    5.0013    0.4125    0.0000 C    0  0  0  0  0  0  0  0  0  0  0  0
    5.0013   -0.4125    0.0000 C    0  0  0  0  0  0  0  0  0  0  0  0
    4.2868   -0.8250    0.0000 C    0  0  0  0  0  0  0  0  0  0  0  0
    3.5724   -0.4125    0.0000 C    0  0  0  0  0  0  0  0  0  0  0  0
    2.8579    1.6500    0.0000 C    0  0  0  0  0  0  0  0  0  0  0  0
    2.1434    2.0625    0.0000 C    0  0  0  0  0  0  0  0  0  0  0  0
    2.1434    2.8875    0.0000 C    0  0  0  0  0  0  0  0  0  0  0  0
    2.8579    3.3000    0.0000 C    0  0  0  0  0  0  0  0  0  0  0  0
    3.5724    2.8875    0.0000 C    0  0  0  0  0  0  0  0  0  0  0  0
    3.5724    2.0625    0.0000 C    0  0  0  0  0  0  0  0  0  0  0  0
    1.4289    1.6500    0.0000 C    0  0  0  0  0  0  0  0  0  0  0  0
    0.7145    2.0625    0.0000 C    0  0  0  0  0  0  0  0  0  0  0  0
    0.0000    1.6500    0.0000 C    0  0  0  0  0  0  0  0  0  0  0  0
   -0.7145    2.0625    0.0000 C    0  0  0  0  0  0  0  0  0  0  0  0
   -0.7145    2.8875    0.0000 C    0  0  0  0  0  0  0  0  0  0  0  0
    0.0000    3.3000    0.0000 C    0  0  0  0  0  0  0  0  0  0  0  0
    0.7145    2.8875    0.0000 C    0  0  0  0  0  0  0  0  0  0  0  0
    1.4289    3.3000    0.0000 Cl   0  0  0  0  0  0  0  0  0  0  0  0
    0.0000    4.1250    0.0000 C    0  0  0  0  0  0  0  0  0  0  0  0
    0.0000    4.9500    0.0000 F    0  0  0  0  0  0  0  0  0  0  0  0
    0.8250    4.1250    0.0000 F    0  0  0  0  0  0  0  0  0  0  0  0
   -0.8250    4.1250    0.0000 F    0  0  0  0  0  0  0  0  0  0  0  0
   -2.1434   -0.4125    0.0000 C    0  0  0  0  0  0  0  0  0  0  0  0
  1  2  1  0  0  0  0
  2  3  2  0  0  0  0
  2  4  1  0  0  0  0
  4  5  1  0  0  0  0
  5  6  2  0  0  0  0
  6  7  1  0  0  0  0
  7  8  2  0  0  0  0
  8  9  1  0  0  0  0
  9 10  1  0  0  0  0
 10 11  1  0  0  0  0
 11 12  1  0  0  0  0
 12 13  1  0  0  0  0
 13 14  1  0  0  0  0
 14 15  1  0  0  0  0
 15 16  1  0  0  0  0
 16 17  1  0  0  0  0
 17 18  1  0  0  0  0
 18 19  1  0  0  0  0
 19 20  1  0  0  0  0
 20 21  1  0  0  0  0
 21 22  1  0  0  0  0
 17 22  1  0  0  0  0
 16 23  1  6  0  0  0
 23 24  2  0  0  0  0
 24 25  1  0  0  0  0
 25 26  2  0  0  0  0
 26 27  1  0  0  0  0
 27 28  2  0  0  0  0
 23 28  1  0  0  0  0
 14 29  1  0  0  0  0
 29 30  1  0  0  0  0
 30 31  2  0  0  0  0
 31 32  1  0  0  0  0
 32 33  2  0  0  0  0
 33 34  1  0  0  0  0
 34 35  2  0  0  0  0
 30 35  1  0  0  0  0
 35 36  1  0  0  0  0
 34 37  1  0  0  0  0
 37 38  1  0  0  0  0
 37 39  1  0  0  0  0
 37 40  1  0  0  0  0
  9 41  2  0  0  0  0
  5 41  1  0  0  0  0
M  END
> <DRUGBANK_ID>
DB03791

> <DRUG_GROUPS>
experimental

> <GENERIC_NAME>
(3-{3-[[2-Chloro-3-(Trifluoromethyl)Benzyl](2,2-Diphenylethyl)Amino]Propoxy}Phenyl)Acetic Acid

> <CHEMICAL_FORMULA>
C33H37ClF3NO3

> <MOLECULAR_WEIGHT>
588.1

> <EXACT_MASS>
587.241406377

> <IUPAC_NAME>
2-{3-[3-({[2-chloro-3-(trifluoromethyl)phenyl]methyl}[(2S)-2-cyclohexyl-2-phenylethyl]amino)propoxy]phenyl}acetic acid

> <IUPAC_TRADITIONAL_NAME>
{3-[3-({[2-chloro-3-(trifluoromethyl)phenyl]methyl}[(2S)-2-cyclohexyl-2-phenylethyl]amino)propoxy]phenyl}acetic acid

> <INCHI_IDENTIFIER>
InChI=1S/C33H37ClF3NO3/c34-32-27(15-8-17-30(32)33(35,36)37)22-38(18-9-19-41-28-16-7-10-24(20-28)21-31(39)40)23-29(25-11-3-1-4-12-25)26-13-5-2-6-14-26/h1,3-4,7-8,10-12,15-17,20,26,29H,2,5-6,9,13-14,18-19,21-23H2,(H,39,40)/t29-/m1/s1

> <INCHI_KEY>
InChIKey=AVXMWVZLCQSTKR-GDLZYMKVSA-N

> <SMILES>
OC(=O)CC1=CC=CC(OCCCN(C[C@@H](C2CCCCC2)C2=CC=CC=C2)CC2=CC=CC(=C2Cl)C(F)(F)F)=C1

> <JCHEM_ACCEPTOR_COUNT>
4

> <JCHEM_DONOR_COUNT>
1

> <JCHEM_ACIDIC_PKA>
3.88

> <JCHEM_BASIC_PKA>
8.74

> <JCHEM_PHYSIOLOGICAL_CHARGE>
0

> <ALOGPS_LOGP>
7.7

> <JCHEM_LOGP>
5.99

> <ALOGPS_LOGS>
-6.9

> <JCHEM_POLARIZABILITY>
60.58

> <JCHEM_POLAR_SURFACE_AREA>
49.77

> <JCHEM_REFRACTIVITY>
157.09

> <JCHEM_ROTATABLE_BOND_COUNT>
14

> <ALOGPS_SOLUBILITY>
7.30e-05 g/l __ 

$$$$
