I06
  Mrv0541 02231216552D          

 20 22  0  0  0  0            999 V2000
   -3.1962    0.0777    0.0000 C   0  0  0  0  0  0  0  0  0  0  0  0
   -2.4817   -0.3348    0.0000 C   0  0  0  0  0  0  0  0  0  0  0  0
   -1.7672    0.0777    0.0000 C   0  0  0  0  0  0  0  0  0  0  0  0
   -1.7672    0.9027    0.0000 C   0  0  0  0  0  0  0  0  0  0  0  0
   -2.4817    1.3152    0.0000 C   0  0  0  0  0  0  0  0  0  0  0  0
   -3.1962    0.9027    0.0000 C   0  0  0  0  0  0  0  0  0  0  0  0
   -1.0528   -0.3348    0.0000 C   0  0  0  0  0  0  0  0  0  0  0  0
   -1.0528   -1.1598    0.0000 O   0  0  0  0  0  0  0  0  0  0  0  0
   -0.3383    0.0777    0.0000 N   0  0  0  0  0  0  0  0  0  0  0  0
   -0.3383    0.9027    0.0000 N   0  0  0  0  0  0  0  0  0  0  0  0
   -1.0528    1.3152    0.0000 C   0  0  0  0  0  0  0  0  0  0  0  0
   -1.0528    2.1402    0.0000 O   0  0  0  0  0  0  0  0  0  0  0  0
    0.3762   -0.3348    0.0000 C   0  0  0  0  0  0  0  0  0  0  0  0
    1.0907    0.0777    0.0000 C   0  0  0  0  0  0  0  0  0  0  0  0
    1.8051   -0.3348    0.0000 C   0  0  0  0  0  0  0  0  0  0  0  0
    2.5196    0.0777    0.0000 C   0  0  0  0  0  0  0  0  0  0  0  0
    1.8051   -1.1598    0.0000 C   0  0  0  0  0  0  0  0  0  0  0  0
    3.2341   -0.3348    0.0000 C   0  0  0  0  0  0  0  0  0  0  0  0
    2.5196   -1.5723    0.0000 C   0  0  0  0  0  0  0  0  0  0  0  0
    3.2341   -1.1598    0.0000 C   0  0  0  0  0  0  0  0  0  0  0  0
  1  2  2  0  0  0  0
  1  6  1  0  0  0  0
  2  3  1  0  0  0  0
  3  4  2  0  0  0  0
  3  7  1  0  0  0  0
  4  5  1  0  0  0  0
  4 11  1  0  0  0  0
  5  6  2  0  0  0  0
  7  8  2  0  0  0  0
  7  9  1  0  0  0  0
  9 10  1  0  0  0  0
  9 13  1  0  0  0  0
 10 11  1  0  0  0  0
 11 12  2  0  0  0  0
 13 14  1  0  0  0  0
 14 15  1  0  0  0  0
 15 16  2  0  0  0  0
 15 17  1  0  0  0  0
 16 18  1  0  0  0  0
 17 19  2  0  0  0  0
 18 20  2  0  0  0  0
 19 20  1  0  0  0  0
M  END
> <DRUGBANK_ID>
DB03421

> <DRUG_GROUPS>
experimental

> <GENERIC_NAME>
2-Phenethyl-2,3-Dihydro-Phthalazine-1,4-Dione

> <CHEMICAL_FORMULA>
C16H14N2O2

> <MOLECULAR_WEIGHT>
266.2946

> <EXACT_MASS>
266.105527702

> <IUPAC_NAME>
2-(2-phenylethyl)-1,2,3,4-tetrahydrophthalazine-1,4-dione

> <IUPAC_TRADITIONAL_NAME>
2-(2-phenylethyl)-3H-phthalazine-1,4-dione

> <INCHI_IDENTIFIER>
InChI=1S/C16H14N2O2/c19-15-13-8-4-5-9-14(13)16(20)18(17-15)11-10-12-6-2-1-3-7-12/h1-9H,10-11H2,(H,17,19)

> <INCHI_KEY>
InChIKey=JSSVIGGKHIJEHO-UHFFFAOYSA-N

> <SMILES>
O=C1NN(CCC2=CC=CC=C2)C(=O)C2=C1C=CC=C2

> <JCHEM_ACCEPTOR_COUNT>
2

> <JCHEM_DONOR_COUNT>
1

> <JCHEM_ACIDIC_PKA>
13.78

> <JCHEM_BASIC_PKA>
-4.5

> <JCHEM_PHYSIOLOGICAL_CHARGE>
0

> <ALOGPS_LOGP>
1.99

> <JCHEM_LOGP>
2.35

> <ALOGPS_LOGS>
-3.9

> <JCHEM_POLARIZABILITY>
28.22

> <JCHEM_POLAR_SURFACE_AREA>
49.41

> <JCHEM_REFRACTIVITY>
76.88

> <JCHEM_ROTATABLE_BOND_COUNT>
3

> <ALOGPS_SOLUBILITY>
3.37e-02 g/l __ 

$$$$
