CRZ
  Mrv0541 02231217132D          

 19 21  0  0  0  0            999 V2000
   -3.4005   -0.7154    0.0000 O   0  0  0  0  0  0  0  0  0  0  0  0
   -2.6861   -0.3029    0.0000 C   0  0  0  0  0  0  0  0  0  0  0  0
   -2.6861    0.5221    0.0000 O   0  0  0  0  0  0  0  0  0  0  0  0
   -1.9716   -0.7154    0.0000 C   0  0  0  0  0  0  0  0  0  0  0  0
   -1.2571   -0.3029    0.0000 C   0  0  0  0  0  0  0  0  0  0  0  0
   -0.5427   -0.7154    0.0000 C   0  0  0  0  0  0  0  0  0  0  0  0
    0.1718   -0.3029    0.0000 N   0  0  0  0  0  0  0  0  0  0  0  0
    0.9255   -0.6385    0.0000 C   0  0  0  0  0  0  0  0  0  0  0  0
    1.1804   -1.4231    0.0000 C   0  0  0  0  0  0  0  0  0  0  0  0
    1.4775   -0.0254    0.0000 C   0  0  0  0  0  0  0  0  0  0  0  0
    2.2845   -0.1969    0.0000 C   0  0  0  0  0  0  0  0  0  0  0  0
    2.5394   -0.9815    0.0000 C   0  0  0  0  0  0  0  0  0  0  0  0
    1.9874   -1.5946    0.0000 C   0  0  0  0  0  0  0  0  0  0  0  0
    1.0650    0.6891    0.0000 C   0  0  0  0  0  0  0  0  0  0  0  0
    0.2580    0.5175    0.0000 C   0  0  0  0  0  0  0  0  0  0  0  0
   -0.2940    1.1306    0.0000 C   0  0  0  0  0  0  0  0  0  0  0  0
    1.3200    1.4737    0.0000 C   0  0  0  0  0  0  0  0  0  0  0  0
    0.7679    2.0868    0.0000 C   0  0  0  0  0  0  0  0  0  0  0  0
   -0.0391    1.9153    0.0000 C   0  0  0  0  0  0  0  0  0  0  0  0
  1  2  1  0  0  0  0
  2  3  2  0  0  0  0
  2  4  1  0  0  0  0
  4  5  1  0  0  0  0
  5  6  1  0  0  0  0
  6  7  1  0  0  0  0
  7  8  1  0  0  0  0
  7 15  1  0  0  0  0
  8  9  2  0  0  0  0
  8 10  1  0  0  0  0
  9 13  1  0  0  0  0
 10 11  2  0  0  0  0
 10 14  1  0  0  0  0
 11 12  1  0  0  0  0
 12 13  2  0  0  0  0
 14 15  2  0  0  0  0
 14 17  1  0  0  0  0
 15 16  1  0  0  0  0
 16 19  2  0  0  0  0
 17 18  2  0  0  0  0
 18 19  1  0  0  0  0
M  END
> <DRUGBANK_ID>
DB03851

> <DRUG_GROUPS>
experimental

> <GENERIC_NAME>
Carbazole Butanoic Acid

> <CHEMICAL_FORMULA>
C16H15NO2

> <MOLECULAR_WEIGHT>
253.2958

> <EXACT_MASS>
253.110278729

> <IUPAC_NAME>
4-(9H-carbazol-9-yl)butanoic acid

> <IUPAC_TRADITIONAL_NAME>
carbazole butanoic acid

> <INCHI_IDENTIFIER>
InChI=1S/C16H15NO2/c18-16(19)10-5-11-17-14-8-3-1-6-12(14)13-7-2-4-9-15(13)17/h1-4,6-9H,5,10-11H2,(H,18,19)

> <INCHI_KEY>
InChIKey=HQAKVYGASUTQHH-UHFFFAOYSA-N

> <SMILES>
OC(=O)CCCN1C2=CC=CC=C2C2=C1C=CC=C2

> <JCHEM_ACCEPTOR_COUNT>
2

> <JCHEM_DONOR_COUNT>
1

> <JCHEM_ACIDIC_PKA>
4.94

> <JCHEM_PHYSIOLOGICAL_CHARGE>
-1

> <ALOGPS_LOGP>
3.54

> <JCHEM_LOGP>
3.32

> <ALOGPS_LOGS>
-3.9

> <JCHEM_POLARIZABILITY>
27.88

> <JCHEM_POLAR_SURFACE_AREA>
42.23

> <JCHEM_REFRACTIVITY>
73.91

> <JCHEM_ROTATABLE_BOND_COUNT>
4

> <ALOGPS_SOLUBILITY>
3.15e-02 g/l __ 

$$$$
