
  Mrv0541 02231217092D          

 14 14  0  0  1  0            999 V2000
   -1.4289    0.0000    0.0000 O   0  0  0  0  0  0  0  0  0  0  0  0
   -0.7145   -0.4125    0.0000 N   0  0  0  0  0  0  0  0  0  0  0  0
    0.0000    0.0000    0.0000 C   0  0  0  0  0  0  0  0  0  0  0  0
    0.0000    0.8250    0.0000 C   0  0  0  0  0  0  0  0  0  0  0  0
    0.7145    1.2375    0.0000 C   0  0  2  0  0  0  0  0  0  0  0  0
    0.1842    1.8695    0.0000 O   0  0  0  0  0  0  0  0  0  0  0  0
    1.4289    0.8250    0.0000 C   0  0  0  0  0  0  0  0  0  0  0  0
    1.4289    0.0000    0.0000 C   0  0  2  0  0  0  0  0  0  0  0  0
    2.1434   -0.4125    0.0000 O   0  0  0  0  0  0  0  0  0  0  0  0
    0.7145   -0.4125    0.0000 C   0  0  1  0  0  0  0  0  0  0  0  0
    0.7145   -1.2375    0.0000 O   0  0  0  0  0  0  0  0  0  0  0  0
    1.2448    1.8695    0.0000 C   0  0  0  0  0  0  0  0  0  0  0  0
    0.9626    2.6447    0.0000 O   0  0  0  0  0  0  0  0  0  0  0  0
    2.0572    1.7262    0.0000 O   0  0  0  0  0  0  0  0  0  0  0  0
  1  2  1  0  0  0  0
  2  3  2  0  0  0  0
  3  4  1  0  0  0  0
  4  5  1  0  0  0  0
  5  6  1  6  0  0  0
  5  7  1  0  0  0  0
  7  8  1  0  0  0  0
  8  9  1  6  0  0  0
  8 10  1  0  0  0  0
  3 10  1  0  0  0  0
 10 11  1  1  0  0  0
  5 12  1  1  0  0  0
 12 13  1  0  0  0  0
 12 14  2  0  0  0  0
M  END
> <DRUGBANK_ID>
DB03739

> <DRUG_GROUPS>
experimental

> <GENERIC_NAME>
3-Hydroxyimino Quinic Acid

> <CHEMICAL_FORMULA>
C7H11NO6

> <MOLECULAR_WEIGHT>
205.1653

> <EXACT_MASS>
205.058637089

> <IUPAC_NAME>
(1S,3S,4S,5E)-1,3,4-trihydroxy-5-(hydroxyimino)cyclohexane-1-carboxylic acid

> <IUPAC_TRADITIONAL_NAME>
(1S,3S,4S,5E)-1,3,4-trihydroxy-5-(hydroxyimino)cyclohexane-1-carboxylic acid

> <INCHI_IDENTIFIER>
InChI=1S/C7H11NO6/c9-4-2-7(13,6(11)12)1-3(8-14)5(4)10/h4-5,9-10,13-14H,1-2H2,(H,11,12)/b8-3+/t4-,5-,7-/m0/s1

> <INCHI_KEY>
InChIKey=WASIBXJFRXJWAR-MZXFJGNXSA-N

> <SMILES>
O\N=C1/C[C@](O)(C[C@H](O)[C@H]1O)C(O)=O

> <JCHEM_ACCEPTOR_COUNT>
7

> <JCHEM_DONOR_COUNT>
5

> <JCHEM_ACIDIC_PKA>
3.33

> <JCHEM_BASIC_PKA>
-3.2

> <JCHEM_PHYSIOLOGICAL_CHARGE>
-1

> <ALOGPS_LOGP>
-2.2

> <JCHEM_LOGP>
-2

> <ALOGPS_LOGS>
-0.33

> <JCHEM_POLARIZABILITY>
17.78

> <JCHEM_POLAR_SURFACE_AREA>
130.58

> <JCHEM_REFRACTIVITY>
42.52

> <JCHEM_ROTATABLE_BOND_COUNT>
1

> <ALOGPS_SOLUBILITY>
9.56e+01 g/l __ 

$$$$
