
  Mrv0541 02231217082D          

 12 13  0  0  0  0            999 V2000
   -0.3984    0.7541    0.0000 C   0  0  0  0  0  0  0  0  0  0  0  0
   -0.1435   -0.0305    0.0000 N   0  0  0  0  0  0  0  0  0  0  0  0
   -0.6284   -0.6979    0.0000 C   0  0  0  0  0  0  0  0  0  0  0  0
   -0.1435   -1.3654    0.0000 N   0  0  0  0  0  0  0  0  0  0  0  0
    0.6411   -1.1104    0.0000 C   0  0  0  0  0  0  0  0  0  0  0  0
    0.6411   -0.2854    0.0000 C   0  0  0  0  0  0  0  0  0  0  0  0
    1.3556    0.1271    0.0000 N   0  3  0  0  0  0  0  0  0  0  0  0
    1.3556    0.9521    0.0000 C   0  0  0  0  0  0  0  0  0  0  0  0
    2.0701   -0.2854    0.0000 C   0  0  0  0  0  0  0  0  0  0  0  0
    2.0701   -1.1104    0.0000 N   0  0  0  0  0  0  0  0  0  0  0  0
    1.3556   -1.5229    0.0000 C   0  0  0  0  0  0  0  0  0  0  0  0
    1.3556   -2.3479    0.0000 N   0  0  0  0  0  0  0  0  0  0  0  0
  1  2  1  0  0  0  0
  2  3  1  0  0  0  0
  3  4  2  0  0  0  0
  4  5  1  0  0  0  0
  5  6  2  0  0  0  0
  2  6  1  0  0  0  0
  6  7  1  0  0  0  0
  7  8  1  0  0  0  0
  7  9  2  0  0  0  0
  9 10  1  0  0  0  0
 10 11  2  0  0  0  0
  5 11  1  0  0  0  0
 11 12  1  0  0  0  0
M  END
> <DRUGBANK_ID>
DB03730

> <DRUG_GROUPS>
experimental

> <GENERIC_NAME>
3,9-Dimethyladenine

> <CHEMICAL_FORMULA>
C7H10N5

> <MOLECULAR_WEIGHT>
164.1878

> <EXACT_MASS>
164.093620345

> <IUPAC_NAME>
6-amino-3,9-dimethyl-9H-purin-3-ium

> <IUPAC_TRADITIONAL_NAME>
3,9-dimethyladenine

> <INCHI_IDENTIFIER>
InChI=1S/C7H9N5/c1-11-3-9-5-6(8)10-4-12(2)7(5)11/h3-4,8H,1-2H3/p+1

> <INCHI_KEY>
InChIKey=YXTNRNJPEDJTNF-UHFFFAOYSA-O

> <SMILES>
CN1C=NC2=C1[N+](C)=CN=C2N

> <JCHEM_ACCEPTOR_COUNT>
3

> <JCHEM_DONOR_COUNT>
1

> <JCHEM_ACIDIC_PKA>
18.49

> <JCHEM_BASIC_PKA>
0.094

> <JCHEM_PHYSIOLOGICAL_CHARGE>
1

> <ALOGPS_LOGP>
-3.1

> <JCHEM_LOGP>
-4.8

> <ALOGPS_LOGS>
-2.2

> <JCHEM_POLARIZABILITY>
16.82

> <JCHEM_POLAR_SURFACE_AREA>
60.61

> <JCHEM_REFRACTIVITY>
46.09

> <JCHEM_ROTATABLE_BOND_COUNT>
0

> <ALOGPS_SOLUBILITY>
1.35e+00 g/l __ 

$$$$
