PCQ
  Mrv0541 02231216522D          

 18 19  0  0  0  0            999 V2000
    1.4289   -2.0263    0.0000 Cl   0  0  0  0  0  0  0  0  0  0  0  0
   -1.4289   -2.0262    0.0000 Cl   0  0  0  0  0  0  0  0  0  0  0  0
    0.0000   -2.8513    0.0000 O    0  0  0  0  0  0  0  0  0  0  0  0
    0.0000   -0.3762    0.0000 C    0  0  0  0  0  0  0  0  0  0  0  0
    0.7145   -0.7888    0.0000 C    0  0  0  0  0  0  0  0  0  0  0  0
    0.7145   -1.6138    0.0000 C    0  0  0  0  0  0  0  0  0  0  0  0
    0.0000   -2.0263    0.0000 C    0  0  0  0  0  0  0  0  0  0  0  0
   -0.7145   -1.6137    0.0000 C    0  0  0  0  0  0  0  0  0  0  0  0
   -0.7145   -0.7887    0.0000 C    0  0  0  0  0  0  0  0  0  0  0  0
   -1.4289    2.0988    0.0000 Cl   0  0  0  0  0  0  0  0  0  0  0  0
    1.4289    2.0987    0.0000 Cl   0  0  0  0  0  0  0  0  0  0  0  0
    0.0000    2.9238    0.0000 O    0  0  0  0  0  0  0  0  0  0  0  0
    0.0000    0.4488    0.0000 C    0  0  0  0  0  0  0  0  0  0  0  0
   -0.7145    0.8613    0.0000 C    0  0  0  0  0  0  0  0  0  0  0  0
   -0.7145    1.6863    0.0000 C    0  0  0  0  0  0  0  0  0  0  0  0
    0.0000    2.0988    0.0000 C    0  0  0  0  0  0  0  0  0  0  0  0
    0.7145    1.6863    0.0000 C    0  0  0  0  0  0  0  0  0  0  0  0
    0.7145    0.8613    0.0000 C    0  0  0  0  0  0  0  0  0  0  0  0
  1  6  1  0  0  0  0
  2  8  1  0  0  0  0
  3  7  1  0  0  0  0
  4  5  2  0  0  0  0
  4  9  1  0  0  0  0
  4 13  1  0  0  0  0
  5  6  1  0  0  0  0
  6  7  2  0  0  0  0
  7  8  1  0  0  0  0
  8  9  2  0  0  0  0
 10 15  1  0  0  0  0
 11 17  1  0  0  0  0
 12 16  1  0  0  0  0
 13 14  2  0  0  0  0
 13 18  1  0  0  0  0
 14 15  1  0  0  0  0
 15 16  2  0  0  0  0
 16 17  1  0  0  0  0
 17 18  2  0  0  0  0
M  END
> <DRUGBANK_ID>
DB03346

> <DRUG_GROUPS>
experimental

> <GENERIC_NAME>
3,5,3',5'-Tetrachloro-Biphenyl-4,4'-Diol

> <CHEMICAL_FORMULA>
C12H6Cl4O2

> <MOLECULAR_WEIGHT>
323.987

> <EXACT_MASS>
321.912190264

> <IUPAC_NAME>
2,6-dichloro-4-(3,5-dichloro-4-hydroxyphenyl)phenol

> <IUPAC_TRADITIONAL_NAME>
2,6-dichloro-4-(3,5-dichloro-4-hydroxyphenyl)phenol

> <INCHI_IDENTIFIER>
InChI=1S/C12H6Cl4O2/c13-7-1-5(2-8(14)11(7)17)6-3-9(15)12(18)10(16)4-6/h1-4,17-18H

> <INCHI_KEY>
InChIKey=YCYDXOVJXVALHY-UHFFFAOYSA-N

> <SMILES>
OC1=C(Cl)C=C(C=C1Cl)C1=CC(Cl)=C(O)C(Cl)=C1

> <JCHEM_ACCEPTOR_COUNT>
2

> <JCHEM_DONOR_COUNT>
2

> <JCHEM_ACIDIC_PKA>
6.11

> <JCHEM_BASIC_PKA>
-7.5

> <JCHEM_PHYSIOLOGICAL_CHARGE>
-2

> <ALOGPS_LOGP>
6.22

> <JCHEM_LOGP>
5.43

> <ALOGPS_LOGS>
-5

> <JCHEM_POLARIZABILITY>
28.98

> <JCHEM_POLAR_SURFACE_AREA>
40.46

> <JCHEM_REFRACTIVITY>
74.38

> <JCHEM_ROTATABLE_BOND_COUNT>
1

> <ALOGPS_SOLUBILITY>
3.59e-03 g/l __ 

$$$$
