
  Mrv0541 02231216422D          

 11 10  0  0  1  0            999 V2000
   -0.1914   -0.7145    0.0000 O   0  0  0  0  0  0  0  0  0  0  0  0
    0.5230   -1.1270    0.0000 C   0  0  0  0  0  0  0  0  0  0  0  0
    0.5230   -1.9520    0.0000 O   0  0  0  0  0  0  0  0  0  0  0  0
    1.2375   -0.7145    0.0000 C   0  0  1  0  0  0  0  0  0  0  0  0
    1.2375    0.1105    0.0000 C   0  0  0  0  0  0  0  0  0  0  0  0
    1.9520    0.5230    0.0000 F   0  0  0  0  0  0  0  0  0  0  0  0
    1.9520   -1.1270    0.0000 O   0  0  0  0  0  0  0  0  0  0  0  0
    2.6664   -0.7145    0.0000 P   0  0  0  0  0  0  0  0  0  0  0  0
    3.3809   -0.3020    0.0000 O   0  0  0  0  0  0  0  0  0  0  0  0
    3.0789   -1.4289    0.0000 O   0  0  0  0  0  0  0  0  0  0  0  0
    2.2539    0.0000    0.0000 O   0  0  0  0  0  0  0  0  0  0  0  0
  1  2  1  0  0  0  0
  2  3  2  0  0  0  0
  2  4  1  0  0  0  0
  4  5  1  0  0  0  0
  5  6  1  0  0  0  0
  4  7  1  1  0  0  0
  7  8  1  0  0  0  0
  8  9  1  0  0  0  0
  8 10  1  0  0  0  0
  8 11  2  0  0  0  0
M  END
> <DRUGBANK_ID>
DB03113

> <DRUG_GROUPS>
experimental

> <GENERIC_NAME>
3-Fluoro-2-(Phosphonooxy)Propanoic Acid

> <CHEMICAL_FORMULA>
C3H6FO6P

> <MOLECULAR_WEIGHT>
188.0483

> <EXACT_MASS>
187.988602641

> <IUPAC_NAME>
(2S)-3-fluoro-2-(phosphonooxy)propanoic acid

> <IUPAC_TRADITIONAL_NAME>
(2S)-3-fluoro-2-(phosphonooxy)propanoic acid

> <INCHI_IDENTIFIER>
InChI=1S/C3H6FO6P/c4-1-2(3(5)6)10-11(7,8)9/h2H,1H2,(H,5,6)(H2,7,8,9)/t2-/m1/s1

> <INCHI_KEY>
InChIKey=BNOCDEBUFVJMQI-UWTATZPHSA-N

> <SMILES>
OC(=O)[C@@H](CF)OP(O)(O)=O

> <JCHEM_ACCEPTOR_COUNT>
5

> <JCHEM_DONOR_COUNT>
3

> <JCHEM_ACIDIC_PKA>
0.5

> <JCHEM_PHYSIOLOGICAL_CHARGE>
-3

> <ALOGPS_LOGP>
-1.6

> <JCHEM_LOGP>
-0.75

> <ALOGPS_LOGS>
-1.3

> <JCHEM_POLARIZABILITY>
12.56

> <JCHEM_POLAR_SURFACE_AREA>
104.06

> <JCHEM_REFRACTIVITY>
29.56

> <JCHEM_ROTATABLE_BOND_COUNT>
4

> <ALOGPS_SOLUBILITY>
9.02e+00 g/l __ 

$$$$
