
  Mrv0541 02231216442D          

 12 12  0  0  0  0            999 V2000
    2.1434    1.2375    0.0000 O    0  0  0  0  0  0  0  0  0  0  0  0
    1.4289    0.8250    0.0000 C    0  0  0  0  0  0  0  0  0  0  0  0
    1.4289    0.0000    0.0000 C    0  0  0  0  0  0  0  0  0  0  0  0
    2.1434   -0.4125    0.0000 Br   0  0  0  0  0  0  0  0  0  0  0  0
    0.7145   -0.4125    0.0000 C    0  0  0  0  0  0  0  0  0  0  0  0
    0.7145   -1.2375    0.0000 Br   0  0  0  0  0  0  0  0  0  0  0  0
    0.0000    0.0000    0.0000 C    0  0  0  0  0  0  0  0  0  0  0  0
   -0.7145   -0.4125    0.0000 Br   0  0  0  0  0  0  0  0  0  0  0  0
    0.0000    0.8250    0.0000 C    0  0  0  0  0  0  0  0  0  0  0  0
   -0.7145    1.2375    0.0000 Br   0  0  0  0  0  0  0  0  0  0  0  0
    0.7145    1.2375    0.0000 C    0  0  0  0  0  0  0  0  0  0  0  0
    0.7145    2.0625    0.0000 Br   0  0  0  0  0  0  0  0  0  0  0  0
  1  2  1  0  0  0  0
  2  3  2  0  0  0  0
  3  4  1  0  0  0  0
  3  5  1  0  0  0  0
  5  6  1  0  0  0  0
  5  7  2  0  0  0  0
  7  8  1  0  0  0  0
  7  9  1  0  0  0  0
  9 10  1  0  0  0  0
  9 11  2  0  0  0  0
  2 11  1  0  0  0  0
 11 12  1  0  0  0  0
M  END
> <DRUGBANK_ID>
DB03167

> <DRUG_GROUPS>
experimental

> <GENERIC_NAME>
Pentabromophenol

> <CHEMICAL_FORMULA>
C6HBr5O

> <MOLECULAR_WEIGHT>
488.592

> <EXACT_MASS>
483.594427889

> <IUPAC_NAME>
pentabromophenol

> <IUPAC_TRADITIONAL_NAME>
pentabromophenol

> <INCHI_IDENTIFIER>
InChI=1S/C6HBr5O/c7-1-2(8)4(10)6(12)5(11)3(1)9/h12H

> <INCHI_KEY>
InChIKey=SVHOVVJFOWGYJO-UHFFFAOYSA-N

> <SMILES>
OC1=C(Br)C(Br)=C(Br)C(Br)=C1Br

> <JCHEM_ACCEPTOR_COUNT>
1

> <JCHEM_DONOR_COUNT>
1

> <JCHEM_ACIDIC_PKA>
5.01

> <JCHEM_BASIC_PKA>
-8.4

> <JCHEM_PHYSIOLOGICAL_CHARGE>
-1

> <ALOGPS_LOGP>
5.3

> <JCHEM_LOGP>
5.51

> <ALOGPS_LOGS>
-5.4

> <JCHEM_POLARIZABILITY>
26.18

> <JCHEM_POLAR_SURFACE_AREA>
20.23

> <JCHEM_REFRACTIVITY>
66.15

> <JCHEM_ROTATABLE_BOND_COUNT>
0

> <ALOGPS_SOLUBILITY>
2.06e-03 g/l __ 

$$$$
