
  Mrv0541 02231217012D          

 19 21  0  0  1  0            999 V2000
   -3.7205    2.0347    0.0000 O   0  0  0  0  0  0  0  0  0  0  0  0
   -2.9135    2.2062    0.0000 C   0  0  0  0  0  0  0  0  0  0  0  0
   -2.3615    1.5931    0.0000 C   0  0  1  0  0  0  0  0  0  0  0  0
   -1.5410    1.6793    0.0000 C   0  0  0  0  0  0  0  0  0  0  0  0
   -1.2054    0.9256    0.0000 N   0  0  0  0  0  0  0  0  0  0  0  0
   -1.8185    0.3736    0.0000 C   0  0  0  0  0  0  0  0  0  0  0  0
   -2.5330    0.7861    0.0000 C   0  0  2  0  0  0  0  0  0  0  0  0
   -3.2867    0.4506    0.0000 O   0  0  0  0  0  0  0  0  0  0  0  0
   -0.3984    0.7541    0.0000 C   0  0  0  0  0  0  0  0  0  0  0  0
   -0.1435   -0.0305    0.0000 C   0  0  0  0  0  0  0  0  0  0  0  0
   -0.6284   -0.6979    0.0000 C   0  0  0  0  0  0  0  0  0  0  0  0
   -0.1435   -1.3654    0.0000 N   0  0  0  0  0  0  0  0  0  0  0  0
    0.6411   -1.1104    0.0000 C   0  0  2  0  0  0  0  0  0  0  0  0
    0.6411   -0.2854    0.0000 C   0  0  1  0  0  0  0  0  0  0  0  0
    1.3556    0.1271    0.0000 N   0  0  0  0  0  0  0  0  0  0  0  0
    2.0701   -0.2854    0.0000 C   0  0  0  0  0  0  0  0  0  0  0  0
    2.0701   -1.1104    0.0000 N   0  0  0  0  0  0  0  0  0  0  0  0
    1.3556   -1.5229    0.0000 C   0  0  0  0  0  0  0  0  0  0  0  0
    1.3556   -2.3479    0.0000 O   0  0  0  0  0  0  0  0  0  0  0  0
  1  2  1  0  0  0  0
  3  2  1  1  0  0  0
  3  4  1  0  0  0  0
  4  5  1  0  0  0  0
  5  6  1  0  0  0  0
  6  7  1  0  0  0  0
  3  7  1  0  0  0  0
  7  8  1  6  0  0  0
  5  9  1  0  0  0  0
  9 10  1  0  0  0  0
 10 11  2  0  0  0  0
 11 12  1  0  0  0  0
 13 12  1  6  0  0  0
 13 14  1  0  0  0  0
 14 10  1  6  0  0  0
 14 15  1  0  0  0  0
 15 16  2  0  0  0  0
 16 17  1  0  0  0  0
 17 18  1  0  0  0  0
 13 18  1  0  0  0  0
 18 19  2  0  0  0  0
M  END
> <DRUGBANK_ID>
DB03551

> <DRUG_GROUPS>
experimental

> <GENERIC_NAME>
4'-Deaza-1'-Aza-2'-Deoxy-1'-(9-Methylene)-Immucillin-H, (3r,4r)-N-[9-Deazahypoxanthin-9-Yl)Methyl]-4-Hydroxymethyl-Pyrrolidin-3-Ol

> <CHEMICAL_FORMULA>
C12H18N4O3

> <MOLECULAR_WEIGHT>
266.2963

> <EXACT_MASS>
266.137890462

> <IUPAC_NAME>
(4aR,7aS)-7-{[(3R,4R)-3-hydroxy-4-(hydroxymethyl)pyrrolidin-1-yl]methyl}-3H,4H,4aH,5H,7aH-pyrrolo[3,2-d]pyrimidin-4-one

> <IUPAC_TRADITIONAL_NAME>
(4aR,7aS)-7-{[(3R,4R)-3-hydroxy-4-(hydroxymethyl)pyrrolidin-1-yl]methyl}-3H,4aH,5H,7aH-pyrrolo[3,2-d]pyrimidin-4-one

> <INCHI_IDENTIFIER>
InChI=1S/C12H18N4O3/c17-5-8-3-16(4-9(8)18)2-7-1-13-11-10(7)14-6-15-12(11)19/h1,6,8-11,13,17-18H,2-5H2,(H,14,15,19)/t8-,9+,10+,11-/m1/s1

> <INCHI_KEY>
InChIKey=WFVGWLHAOKEIOJ-VPOLOUISSA-N

> <SMILES>
OC[C@H]1CN(CC2=CN[C@@H]3[C@H]2N=CNC3=O)C[C@@H]1O

> <JCHEM_ACCEPTOR_COUNT>
6

> <JCHEM_DONOR_COUNT>
4

> <JCHEM_ACIDIC_PKA>
13.06

> <JCHEM_BASIC_PKA>
8.24

> <JCHEM_PHYSIOLOGICAL_CHARGE>
1

> <ALOGPS_LOGP>
-2.4

> <JCHEM_LOGP>
-2.9

> <ALOGPS_LOGS>
-1.8

> <JCHEM_POLARIZABILITY>
26.59

> <JCHEM_POLAR_SURFACE_AREA>
97.19

> <JCHEM_REFRACTIVITY>
67.58

> <JCHEM_ROTATABLE_BOND_COUNT>
3

> <ALOGPS_SOLUBILITY>
4.78e+00 g/l __ 

$$$$
