
  Mrv0541 02231216402D          

 13 14  0  0  0  0            999 V2000
    2.7845    0.6979    0.0000 N   0  0  0  0  0  0  0  0  0  0  0  0
    2.0701    1.1104    0.0000 C   0  0  0  0  0  0  0  0  0  0  0  0
    1.3556    0.6979    0.0000 N   0  0  0  0  0  0  0  0  0  0  0  0
    0.6411    1.1104    0.0000 C   0  0  0  0  0  0  0  0  0  0  0  0
   -0.1435    0.8555    0.0000 N   0  0  0  0  0  0  0  0  0  0  0  0
   -0.6284    1.5229    0.0000 C   0  0  0  0  0  0  0  0  0  0  0  0
   -0.1435    2.1904    0.0000 C   0  0  0  0  0  0  0  0  0  0  0  0
   -0.3984    2.9750    0.0000 C   0  0  0  0  0  0  0  0  0  0  0  0
   -0.6534    3.7596    0.0000 N   0  0  0  0  0  0  0  0  0  0  0  0
    0.6411    1.9354    0.0000 C   0  0  0  0  0  0  0  0  0  0  0  0
    1.3556    2.3479    0.0000 C   0  0  0  0  0  0  0  0  0  0  0  0
    1.3556    3.1729    0.0000 O   0  0  0  0  0  0  0  0  0  0  0  0
    2.0701    1.9354    0.0000 N   0  0  0  0  0  0  0  0  0  0  0  0
  1  2  1  0  0  0  0
  2  3  2  0  0  0  0
  3  4  1  0  0  0  0
  4  5  4  0  0  0  0
  5  6  4  0  0  0  0
  6  7  4  0  0  0  0
  7  8  1  0  0  0  0
  8  9  3  0  0  0  0
  7 10  4  0  0  0  0
  4 10  4  0  0  0  0
 10 11  1  0  0  0  0
 11 12  2  0  0  0  0
 11 13  1  0  0  0  0
  2 13  1  0  0  0  0
M  END
> <DRUGBANK_ID>
DB03074

> <DRUG_GROUPS>
experimental

> <GENERIC_NAME>
7-Deaza-7-Cyano-Guanine

> <CHEMICAL_FORMULA>
C7H4N5O

> <MOLECULAR_WEIGHT>
174.1396

> <EXACT_MASS>
174.041584775

> <IUPAC_NAME>
2-amino-4-oxopyrrolo[2,3-d]pyrimidine-5-carbonitrile

> <IUPAC_TRADITIONAL_NAME>
7-deaza-7-cyano-guanine

> <INCHI_IDENTIFIER>
InChI=1S/C7H4N5O/c8-1-3-2-10-5-4(3)6(13)12-7(9)11-5/h2H,(H3,9,10,11,12,13)

> <INCHI_KEY>
InChIKey=KKKICLMOPRHGFJ-UHFFFAOYSA-N

> <SMILES>
NC1=Nc2ncc(C#N)c2C(=O)N1

> <JCHEM_ACCEPTOR_COUNT>
5

> <JCHEM_DONOR_COUNT>
2

> <JCHEM_ACIDIC_PKA>
7.49

> <JCHEM_BASIC_PKA>
-1.3

> <JCHEM_PHYSIOLOGICAL_CHARGE>
0

> <ALOGPS_LOGP>
-0.44

> <JCHEM_LOGP>
-0.98

> <ALOGPS_LOGS>
-1.5

> <JCHEM_POLARIZABILITY>
15.48

> <JCHEM_POLAR_SURFACE_AREA>
108.45

> <JCHEM_REFRACTIVITY>
44.51

> <JCHEM_ROTATABLE_BOND_COUNT>
0

> <ALOGPS_SOLUBILITY>
5.91e+00 g/l __ 

$$$$
