
  Mrv0541 02231216552D          

 37 44  0  0  1  0            999 V2000
   -3.3490    0.9760    0.0000 C    0  0  0  0  0  0  0  0  0  0  0  0
   -2.7146    0.4486    0.0000 C    0  0  0  0  0  0  0  0  0  0  0  0
   -2.7684   -0.3746    0.0000 C    0  0  0  0  0  0  0  0  0  0  0  0
   -3.4660   -0.8150    0.0000 C    0  0  0  0  0  0  0  0  0  0  0  0
   -2.0020   -0.6802    0.0000 C    0  0  0  0  0  0  0  0  0  0  0  0
   -1.4746   -0.0457    0.0000 N    0  3  0  0  0  0  0  0  0  0  0  0
   -1.9151    0.6519    0.0000 C    0  0  0  0  0  0  0  0  0  0  0  0
   -1.3945    1.5893    0.0000 C    0  0  0  0  0  0  0  0  0  0  0  0
   -0.6802    2.0020    0.0000 C    0  0  0  0  0  0  0  0  0  0  0  0
   -0.3746    2.7684    0.0000 C    0  0  0  0  0  0  0  0  0  0  0  0
   -0.8150    3.4660    0.0000 C    0  0  0  0  0  0  0  0  0  0  0  0
    0.4486    2.7146    0.0000 C    0  0  0  0  0  0  0  0  0  0  0  0
    0.9760    3.3490    0.0000 C    0  0  0  0  0  0  0  0  0  0  0  0
    0.6519    1.9151    0.0000 C    0  0  0  0  0  0  0  0  0  0  0  0
    1.5893    1.3945    0.0000 C    0  0  0  0  0  0  0  0  0  0  0  0
    2.0020    0.6802    0.0000 C    0  0  0  0  0  0  0  0  0  0  0  0
    2.7684    0.3746    0.0000 C    0  0  0  0  0  0  0  0  0  0  0  0
    3.4660    0.8150    0.0000 C    0  0  0  0  0  0  0  0  0  0  0  0
    2.7146   -0.4486    0.0000 C    0  0  0  0  0  0  0  0  0  0  0  0
    3.3490   -0.9760    0.0000 C    0  0  0  0  0  0  0  0  0  0  0  0
    4.1230   -0.6903    0.0000 O    0  0  0  0  0  0  0  0  0  0  0  0
    3.2095   -1.7891    0.0000 O    0  0  0  0  0  0  0  0  0  0  0  0
    1.9151   -0.6519    0.0000 C    0  0  0  0  0  0  0  0  0  0  0  0
    1.4746    0.0457    0.0000 N    0  3  0  0  0  0  0  0  0  0  0  0
    0.0000    0.0000    0.0000 Fe   0  0  1  0  0  0  0  0  0  0  0  0
    0.0457   -1.4746    0.0000 N    0  0  0  0  0  0  0  0  0  0  0  0
   -0.6519   -1.9151    0.0000 C    0  0  0  0  0  0  0  0  0  0  0  0
   -1.5893   -1.3945    0.0000 C    0  0  0  0  0  0  0  0  0  0  0  0
   -0.4486   -2.7146    0.0000 C    0  0  0  0  0  0  0  0  0  0  0  0
   -0.9760   -3.3490    0.0000 C    0  0  0  0  0  0  0  0  0  0  0  0
    0.3746   -2.7684    0.0000 C    0  0  0  0  0  0  0  0  0  0  0  0
    0.8150   -3.4660    0.0000 C    0  0  0  0  0  0  0  0  0  0  0  0
    1.6394   -3.4334    0.0000 O    0  0  0  0  0  0  0  0  0  0  0  0
    0.4311   -4.1962    0.0000 O    0  0  0  0  0  0  0  0  0  0  0  0
    0.6802   -2.0020    0.0000 C    0  0  0  0  0  0  0  0  0  0  0  0
    1.3945   -1.5893    0.0000 C    0  0  0  0  0  0  0  0  0  0  0  0
   -0.0457    1.4746    0.0000 N    0  0  0  0  0  0  0  0  0  0  0  0
  1  2  1  0  0  0  0
  2  3  2  0  0  0  0
  3  4  1  0  0  0  0
  3  5  1  0  0  0  0
  5  6  2  0  0  0  0
  6  7  1  0  0  0  0
  2  7  1  0  0  0  0
  7  8  2  0  0  0  0
  8  9  1  0  0  0  0
  9 10  2  0  0  0  0
 10 11  1  0  0  0  0
 10 12  1  0  0  0  0
 12 13  1  0  0  0  0
 12 14  2  0  0  0  0
 14 15  1  0  0  0  0
 15 16  2  0  0  0  0
 16 17  1  0  0  0  0
 17 18  1  0  0  0  0
 17 19  2  0  0  0  0
 19 20  1  0  0  0  0
 20 21  1  0  0  0  0
 20 22  2  0  0  0  0
 19 23  1  0  0  0  0
 23 24  2  0  0  0  0
 16 24  1  0  0  0  0
 25 24  1  1  0  0  0
  6 25  1  0  0  0  0
 25 26  1  0  0  0  0
 26 27  1  0  0  0  0
 27 28  2  0  0  0  0
  5 28  1  0  0  0  0
 27 29  1  0  0  0  0
 29 30  1  0  0  0  0
 29 31  2  0  0  0  0
 31 32  1  0  0  0  0
 32 33  1  0  0  0  0
 32 34  2  0  0  0  0
 31 35  1  0  0  0  0
 26 35  1  0  0  0  0
 35 36  2  0  0  0  0
 23 36  1  0  0  0  0
 25 37  1  0  0  0  0
  9 37  1  0  0  0  0
 14 37  1  0  0  0  0
M  END
> <DRUGBANK_ID>
DB03404

> <DRUG_GROUPS>
experimental

> <GENERIC_NAME>
6,7-Dicarboxyl-1,2,3,4,5,8-Hexamethylhemin

> <CHEMICAL_FORMULA>
C28H24FeN4O4

> <MOLECULAR_WEIGHT>
536.36

> <EXACT_MASS>
536.114697409

> <IUPAC_NAME>
(1S)-4,20-dicarboxy-5,9,10,14,15,19-hexamethyl-2$l^{5},22,23$l^{5},25-tetraaza-1-ferraoctacyclo[11.9.1.1^{1,8}.1^{3,21}.0^{2,6}.0^{16,23}.0^{18,22}.0^{11,25}]pentacosa-2,4,6,8,10,12,14,16(23),17,19,21(24)-undecaene-2,23-bis(ylium)

> <IUPAC_TRADITIONAL_NAME>
(1S)-4,20-dicarboxy-5,9,10,14,15,19-hexamethyl-2$l^{5},22,23$l^{5},25-tetraaza-1-ferraoctacyclo[11.9.1.1^{1,8}.1^{3,21}.0^{2,6}.0^{16,23}.0^{18,22}.0^{11,25}]pentacosa-2,4,6,8,10,12,14,16(23),17,19,21(24)-undecaene-2,23-bis(ylium)

> <INCHI_IDENTIFIER>
InChI=1S/C28H26N4O4.Fe/c1-11-13(3)19-8-21-15(5)25(27(33)34)23(31-21)10-24-26(28(35)36)16(6)22(32-24)9-20-14(4)12(2)18(30-20)7-17(11)29-19;/h7-10H,1-6H3,(H4,29,30,31,32,33,34,35,36);/q;+4/p-2/b17-7-,18-7-,19-8-,20-9-,21-8-,22-9-,23-10-,24-10-;

> <INCHI_KEY>
InChIKey=OGSDPEJQVNAKLA-ZTZLPJICSA-L

> <SMILES>
CC1=C2C=C3C(C)=C(C)C4=[N+]3[Fe@]35N6C(=C4)C(C)=C(C(O)=O)C6=CC4=[N+]3C(=CC(N25)=C1C)C(C)=C4C(O)=O

> <JCHEM_ACCEPTOR_COUNT>
4

> <JCHEM_DONOR_COUNT>
2

> <JCHEM_ACIDIC_PKA>
2.42

> <JCHEM_PHYSIOLOGICAL_CHARGE>
0

> <ALOGPS_LOGP>
-0.45

> <JCHEM_LOGP>
0.31

> <ALOGPS_LOGS>
-5.4

> <JCHEM_POLARIZABILITY>
58.74

> <JCHEM_POLAR_SURFACE_AREA>
92.22

> <JCHEM_REFRACTIVITY>
143.17

> <JCHEM_ROTATABLE_BOND_COUNT>
2

> <ALOGPS_SOLUBILITY>
2.57e-03 g/l __ 

$$$$
