SDS
  Mrv0541 02231217192D          

 17 16  0  0  0  0            999 V2000
   -4.7188   -0.1526    0.0000 S   0  0  0  0  0  0  0  0  0  0  0  0
   -5.4333   -0.5651    0.0000 O   0  0  0  0  0  0  0  0  0  0  0  0
   -4.0042    0.2599    0.0000 O   0  0  0  0  0  0  0  0  0  0  0  0
   -4.3062   -0.8671    0.0000 O   0  0  0  0  0  0  0  0  0  0  0  0
   -5.1313    0.5619    0.0000 O   0  0  0  0  0  0  0  0  0  0  0  0
   -3.2896   -0.1526    0.0000 C   0  0  0  0  0  0  0  0  0  0  0  0
    4.5700    0.2599    0.0000 C   0  0  0  0  0  0  0  0  0  0  0  0
    3.8556   -0.1526    0.0000 C   0  0  0  0  0  0  0  0  0  0  0  0
    3.1410    0.2599    0.0000 C   0  0  0  0  0  0  0  0  0  0  0  0
    2.4265   -0.1526    0.0000 C   0  0  0  0  0  0  0  0  0  0  0  0
    1.7120    0.2599    0.0000 C   0  0  0  0  0  0  0  0  0  0  0  0
    0.9975   -0.1526    0.0000 C   0  0  0  0  0  0  0  0  0  0  0  0
    0.2829    0.2599    0.0000 C   0  0  0  0  0  0  0  0  0  0  0  0
   -0.4316   -0.1526    0.0000 C   0  0  0  0  0  0  0  0  0  0  0  0
   -1.1461    0.2599    0.0000 C   0  0  0  0  0  0  0  0  0  0  0  0
   -1.8606   -0.1526    0.0000 C   0  0  0  0  0  0  0  0  0  0  0  0
   -2.5752    0.2599    0.0000 C   0  0  0  0  0  0  0  0  0  0  0  0
  1  2  2  0  0  0  0
  1  3  1  0  0  0  0
  1  4  1  0  0  0  0
  1  5  2  0  0  0  0
  3  6  1  0  0  0  0
  6 17  1  0  0  0  0
  7  8  1  0  0  0  0
  8  9  1  0  0  0  0
  9 10  1  0  0  0  0
 10 11  1  0  0  0  0
 11 12  1  0  0  0  0
 12 13  1  0  0  0  0
 13 14  1  0  0  0  0
 14 15  1  0  0  0  0
 15 16  1  0  0  0  0
 16 17  1  0  0  0  0
M  END
> <DRUGBANK_ID>
DB03967

> <DRUG_GROUPS>
experimental

> <GENERIC_NAME>
Dodecyl Sulfate

> <CHEMICAL_FORMULA>
C12H26O4S

> <MOLECULAR_WEIGHT>
266.397

> <EXACT_MASS>
266.15518001

> <IUPAC_NAME>
(dodecyloxy)sulfonic acid

> <IUPAC_TRADITIONAL_NAME>
dodecyloxysulfonic acid

> <INCHI_IDENTIFIER>
InChI=1S/C12H26O4S/c1-2-3-4-5-6-7-8-9-10-11-12-16-17(13,14)15/h2-12H2,1H3,(H,13,14,15)

> <INCHI_KEY>
InChIKey=MOTZDAYCYVMXPC-UHFFFAOYSA-N

> <SMILES>
CCCCCCCCCCCCOS(O)(=O)=O

> <JCHEM_ACCEPTOR_COUNT>
3

> <JCHEM_DONOR_COUNT>
1

> <JCHEM_ACIDIC_PKA>
-1.5

> <JCHEM_PHYSIOLOGICAL_CHARGE>
-1

> <ALOGPS_LOGP>
1.77

> <JCHEM_LOGP>
4.42

> <ALOGPS_LOGS>
-4.4

> <JCHEM_POLARIZABILITY>
31.5

> <JCHEM_POLAR_SURFACE_AREA>
63.6

> <JCHEM_REFRACTIVITY>
68.93

> <JCHEM_ROTATABLE_BOND_COUNT>
12

> <ALOGPS_SOLUBILITY>
1.13e-02 g/l __ 

$$$$
