
  Mrv0541 02231217172D          

 13 13  0  0  1  0            999 V2000
    2.0198    0.8843    0.0000 O   0  0  0  0  0  0  0  0  0  0  0  0
    1.2352    0.6294    0.0000 C   0  0  2  0  0  0  0  0  0  0  0  0
    0.9803   -0.1553    0.0000 C   0  0  0  0  0  0  0  0  0  0  0  0
    0.1553   -0.1553    0.0000 O   0  0  0  0  0  0  0  0  0  0  0  0
   -0.0997    0.6294    0.0000 C   0  0  2  0  0  0  0  0  0  0  0  0
   -0.8843    0.8843    0.0000 C   0  0  0  0  0  0  0  0  0  0  0  0
   -1.0558    1.6913    0.0000 O   0  0  0  0  0  0  0  0  0  0  0  0
   -1.8405    1.9462    0.0000 P   0  0  0  0  0  0  0  0  0  0  0  0
   -2.6251    2.2012    0.0000 O   0  0  0  0  0  0  0  0  0  0  0  0
   -1.5855    2.7308    0.0000 O   0  0  0  0  0  0  0  0  0  0  0  0
   -2.0954    1.1616    0.0000 O   0  0  0  0  0  0  0  0  0  0  0  0
    0.5678    1.1143    0.0000 C   0  0  1  0  0  0  0  0  0  0  0  0
    0.5678    1.9393    0.0000 O   0  0  0  0  0  0  0  0  0  0  0  0
  2  1  1  6  0  0  0
  2  3  1  0  0  0  0
  3  4  1  0  0  0  0
  4  5  1  0  0  0  0
  5  6  1  6  0  0  0
  6  7  1  0  0  0  0
  7  8  1  0  0  0  0
  8  9  1  0  0  0  0
  8 10  1  0  0  0  0
  8 11  2  0  0  0  0
  5 12  1  0  0  0  0
  2 12  1  0  0  0  0
 12 13  1  1  0  0  0
M  END
> <DRUGBANK_ID>
DB03936

> <DRUG_GROUPS>
experimental

> <GENERIC_NAME>
1-Deoxy-Ribofuranose-5'-Phosphate

> <CHEMICAL_FORMULA>
C5H11O7P

> <MOLECULAR_WEIGHT>
214.1104

> <EXACT_MASS>
214.024239218

> <IUPAC_NAME>
{[(2R,3S,4R)-3,4-dihydroxyoxolan-2-yl]methoxy}phosphonic acid

> <IUPAC_TRADITIONAL_NAME>
[(2R,3S,4R)-3,4-dihydroxyoxolan-2-yl]methoxyphosphonic acid

> <INCHI_IDENTIFIER>
InChI=1S/C5H11O7P/c6-3-1-11-4(5(3)7)2-12-13(8,9)10/h3-7H,1-2H2,(H2,8,9,10)/t3-,4-,5+/m1/s1

> <INCHI_KEY>
InChIKey=CYZZKTRFOOKUMT-WDCZJNDASA-N

> <SMILES>
O[C@@H]1CO[C@H](COP(O)(O)=O)[C@H]1O

> <JCHEM_ACCEPTOR_COUNT>
6

> <JCHEM_DONOR_COUNT>
4

> <JCHEM_ACIDIC_PKA>
1.23

> <JCHEM_BASIC_PKA>
-3.5

> <JCHEM_PHYSIOLOGICAL_CHARGE>
-2

> <ALOGPS_LOGP>
-2.1

> <JCHEM_LOGP>
-2.1

> <ALOGPS_LOGS>
-0.74

> <JCHEM_POLARIZABILITY>
17.37

> <JCHEM_POLAR_SURFACE_AREA>
116.45

> <JCHEM_REFRACTIVITY>
39.8

> <JCHEM_ROTATABLE_BOND_COUNT>
3

> <ALOGPS_SOLUBILITY>
3.86e+01 g/l __ 

$$$$
