
  Mrv0541 02231217072D          

 40 41  0  0  1  0            999 V2000
   -3.9234   -6.2374    0.0000 C   0  0  0  0  0  0  0  0  0  0  0  0
   -3.3103   -6.7894    0.0000 C   0  0  0  0  0  0  0  0  0  0  0  0
   -3.4818   -7.5964    0.0000 C   0  0  0  0  0  0  0  0  0  0  0  0
   -2.5257   -6.5345    0.0000 C   0  0  1  0  0  0  0  0  0  0  0  0
   -1.9126   -7.0865    0.0000 N   0  0  0  0  0  0  0  0  0  0  0  0
   -2.0841   -7.8935    0.0000 C   0  0  0  0  0  0  0  0  0  0  0  0
   -2.8687   -8.1484    0.0000 O   0  0  0  0  0  0  0  0  0  0  0  0
   -1.4710   -8.4455    0.0000 C   0  0  0  0  0  0  0  0  0  0  0  0
   -0.6864   -8.1906    0.0000 C   0  0  0  0  0  0  0  0  0  0  0  0
   -0.0733   -8.7426    0.0000 C   0  0  0  0  0  0  0  0  0  0  0  0
   -0.2448   -9.5496    0.0000 C   0  0  0  0  0  0  0  0  0  0  0  0
   -1.0294   -9.8045    0.0000 C   0  0  0  0  0  0  0  0  0  0  0  0
   -1.6425   -9.2525    0.0000 C   0  0  0  0  0  0  0  0  0  0  0  0
    0.3683  -10.1016    0.0000 C   0  0  0  0  0  0  0  0  0  0  0  0
    1.1529   -9.8467    0.0000 O   0  0  0  0  0  0  0  0  0  0  0  0
    0.1967  -10.9086    0.0000 N   0  0  0  0  0  0  0  0  0  0  0  0
    0.8098  -11.4606    0.0000 C   0  0  0  0  0  0  0  0  0  0  0  0
    0.6383  -12.2676    0.0000 C   0  0  0  0  0  0  0  0  0  0  0  0
    1.2514  -12.8196    0.0000 O   0  0  0  0  0  0  0  0  0  0  0  0
   -0.1463  -12.5225    0.0000 O   0  0  0  0  0  0  0  0  0  0  0  0
   -2.3541   -5.7275    0.0000 C   0  0  0  0  0  0  0  0  0  0  0  0
   -1.5695   -5.4726    0.0000 O   0  0  0  0  0  0  0  0  0  0  0  0
   -2.9672   -5.1755    0.0000 N   0  0  0  0  0  0  0  0  0  0  0  0
   -3.7742   -5.3470    0.0000 C   0  0  0  0  0  0  0  0  0  0  0  0
   -4.1867   -4.6325    0.0000 C   0  0  0  0  0  0  0  0  0  0  0  0
   -3.6347   -4.0194    0.0000 C   0  0  0  0  0  0  0  0  0  0  0  0
   -2.8810   -4.3550    0.0000 C   0  0  2  0  0  0  0  0  0  0  0  0
   -2.1665   -3.9425    0.0000 C   0  0  0  0  0  0  0  0  0  0  0  0
   -2.1665   -3.1175    0.0000 O   0  0  0  0  0  0  0  0  0  0  0  0
   -1.4521   -4.3550    0.0000 N   0  0  0  0  0  0  0  0  0  0  0  0
   -0.7376   -3.9425    0.0000 C   0  0  2  0  0  0  0  0  0  0  0  0
   -0.7376   -3.1175    0.0000 C   0  0  0  0  0  0  0  0  0  0  0  0
   -0.0231   -2.7050    0.0000 C   0  0  0  0  0  0  0  0  0  0  0  0
   -1.4521   -2.7050    0.0000 C   0  0  0  0  0  0  0  0  0  0  0  0
   -0.0231   -4.3550    0.0000 C   0  0  0  0  0  0  0  0  0  0  0  0
   -0.0231   -5.1800    0.0000 O   0  0  0  0  0  0  0  0  0  0  0  0
    0.6914   -3.9425    0.0000 C   0  0  0  0  0  0  0  0  0  0  0  0
    1.4058   -3.5300    0.0000 F   0  0  0  0  0  0  0  0  0  0  0  0
    1.1039   -4.6570    0.0000 F   0  0  0  0  0  0  0  0  0  0  0  0
    0.2789   -3.2280    0.0000 F   0  0  0  0  0  0  0  0  0  0  0  0
  1  2  1  0  0  0  0
  2  3  1  0  0  0  0
  2  4  1  0  0  0  0
  4  5  1  6  0  0  0
  5  6  1  0  0  0  0
  6  7  2  0  0  0  0
  6  8  1  0  0  0  0
  8  9  2  0  0  0  0
  9 10  1  0  0  0  0
 10 11  2  0  0  0  0
 11 12  1  0  0  0  0
 12 13  2  0  0  0  0
  8 13  1  0  0  0  0
 11 14  1  0  0  0  0
 14 15  2  0  0  0  0
 14 16  1  0  0  0  0
 16 17  1  0  0  0  0
 17 18  1  0  0  0  0
 18 19  1  0  0  0  0
 18 20  2  0  0  0  0
  4 21  1  0  0  0  0
 21 22  2  0  0  0  0
 21 23  1  0  0  0  0
 23 24  1  0  0  0  0
 24 25  1  0  0  0  0
 25 26  1  0  0  0  0
 26 27  1  0  0  0  0
 23 27  1  0  0  0  0
 27 28  1  6  0  0  0
 28 29  2  0  0  0  0
 28 30  1  0  0  0  0
 31 30  1  6  0  0  0
 31 32  1  0  0  0  0
 32 33  1  0  0  0  0
 32 34  1  0  0  0  0
 31 35  1  0  0  0  0
 35 36  2  0  0  0  0
 35 37  1  0  0  0  0
 37 38  1  0  0  0  0
 37 39  1  0  0  0  0
 37 40  1  0  0  0  0
M  END
> <DRUGBANK_ID>
DB03702

> <DRUG_GROUPS>
experimental

> <GENERIC_NAME>
2-[4-[[(S)-1-[[(S)-2-[[(Rs)-3,3,3-Trifluoro-1-Isopropyl-2-Oxopropyl]Aminocarbonyl]Pyrrolidin-1-Yl-]Carbonyl]-2-Methylpropyl]Aminocarbonyl]Benzoylamino]Acetic Acid

> <CHEMICAL_FORMULA>
C26H33F3N4O7

> <MOLECULAR_WEIGHT>
570.558

> <EXACT_MASS>
570.230134045

> <IUPAC_NAME>
2-[(4-{[(2R)-3-methyl-1-oxo-1-[(2R)-2-{[(3R)-1,1,1-trifluoro-4-methyl-2-oxopentan-3-yl]carbamoyl}pyrrolidin-1-yl]butan-2-yl]carbamoyl}phenyl)formamido]acetic acid

> <IUPAC_TRADITIONAL_NAME>
[(4-{[(2R)-3-methyl-1-oxo-1-[(2R)-2-{[(3R)-1,1,1-trifluoro-4-methyl-2-oxopentan-3-yl]carbamoyl}pyrrolidin-1-yl]butan-2-yl]carbamoyl}phenyl)formamido]acetic acid

> <INCHI_IDENTIFIER>
InChI=1S/C26H33F3N4O7/c1-13(2)19(21(36)26(27,28)29)31-24(39)17-6-5-11-33(17)25(40)20(14(3)4)32-23(38)16-9-7-15(8-10-16)22(37)30-12-18(34)35/h7-10,13-14,17,19-20H,5-6,11-12H2,1-4H3,(H,30,37)(H,31,39)(H,32,38)(H,34,35)/t17-,19-,20-/m1/s1

> <INCHI_KEY>
InChIKey=MRTSIBBMOWLRPY-MISYRCLQSA-N

> <SMILES>
CC(C)[C@@H](NC(=O)C1=CC=C(C=C1)C(=O)NCC(O)=O)C(=O)N1CCC[C@@H]1C(=O)N[C@H](C(C)C)C(=O)C(F)(F)F

> <JCHEM_ACCEPTOR_COUNT>
7

> <JCHEM_DONOR_COUNT>
4

> <JCHEM_ACIDIC_PKA>
3.08

> <JCHEM_BASIC_PKA>
-0.78

> <JCHEM_PHYSIOLOGICAL_CHARGE>
-1

> <ALOGPS_LOGP>
2.09

> <JCHEM_LOGP>
2.08

> <ALOGPS_LOGS>
-5

> <JCHEM_POLARIZABILITY>
54.44

> <JCHEM_POLAR_SURFACE_AREA>
161.98

> <JCHEM_REFRACTIVITY>
135.51

> <JCHEM_ROTATABLE_BOND_COUNT>
12

> <ALOGPS_SOLUBILITY>
6.27e-03 g/l __ 

$$$$
