
  Mrv0541 02231216482D          

 11 10  0  0  1  0            999 V2000
    2.6664    2.3645    0.0000 C   0  0  0  0  0  0  0  0  0  0  0  0
    1.9520    1.9520    0.0000 C   0  0  0  0  0  0  0  0  0  0  0  0
    1.9520    1.1270    0.0000 C   0  0  1  0  0  0  0  0  0  0  0  0
    1.2375    0.7145    0.0000 O   0  0  0  0  0  0  0  0  0  0  0  0
    1.2375   -0.1105    0.0000 P   0  0  0  0  0  0  0  0  0  0  0  0
    1.2375   -0.9355    0.0000 O   0  0  0  0  0  0  0  0  0  0  0  0
    0.4125   -0.1105    0.0000 O   0  0  0  0  0  0  0  0  0  0  0  0
    2.0625   -0.1105    0.0000 O   0  0  0  0  0  0  0  0  0  0  0  0
    2.6664    0.7145    0.0000 C   0  0  0  0  0  0  0  0  0  0  0  0
    3.3809    1.1270    0.0000 O   0  0  0  0  0  0  0  0  0  0  0  0
    2.6664   -0.1105    0.0000 O   0  0  0  0  0  0  0  0  0  0  0  0
  1  2  1  0  0  0  0
  2  3  1  0  0  0  0
  3  4  1  6  0  0  0
  4  5  1  0  0  0  0
  5  6  1  0  0  0  0
  5  7  1  0  0  0  0
  5  8  2  0  0  0  0
  3  9  1  0  0  0  0
  9 10  1  0  0  0  0
  9 11  2  0  0  0  0
M  END
> <DRUGBANK_ID>
DB03248

> <DRUG_GROUPS>
experimental

> <GENERIC_NAME>
2-(Phosphonooxy)Butanoic Acid

> <CHEMICAL_FORMULA>
C4H9O6P

> <MOLECULAR_WEIGHT>
184.0844

> <EXACT_MASS>
184.013674532

> <IUPAC_NAME>
(2R)-2-(phosphonooxy)butanoic acid

> <IUPAC_TRADITIONAL_NAME>
(2R)-2-(phosphonooxy)butanoic acid

> <INCHI_IDENTIFIER>
InChI=1S/C4H9O6P/c1-2-3(4(5)6)10-11(7,8)9/h3H,2H2,1H3,(H,5,6)(H2,7,8,9)/t3-/m1/s1

> <INCHI_KEY>
InChIKey=OETAGSCBSKODFW-GSVOUGTGSA-N

> <SMILES>
CC[C@@H](OP(O)(O)=O)C(O)=O

> <JCHEM_ACCEPTOR_COUNT>
5

> <JCHEM_DONOR_COUNT>
3

> <JCHEM_ACIDIC_PKA>
1.14

> <JCHEM_PHYSIOLOGICAL_CHARGE>
-3

> <ALOGPS_LOGP>
-1.4

> <JCHEM_LOGP>
-0.073

> <ALOGPS_LOGS>
-0.92

> <JCHEM_POLARIZABILITY>
14.38

> <JCHEM_POLAR_SURFACE_AREA>
104.06

> <JCHEM_REFRACTIVITY>
34.24

> <JCHEM_ROTATABLE_BOND_COUNT>
4

> <ALOGPS_SOLUBILITY>
2.21e+01 g/l __ 

$$$$
