
  Mrv0541 02231216552D          

 45 52  0  0  1  0            999 V2000
    0.2269    0.6903    0.0000 C    0  0  0  0  0  0  0  0  0  0  0  0
    1.0008    0.9760    0.0000 C    0  0  0  0  0  0  0  0  0  0  0  0
    1.1404    1.7891    0.0000 O    0  0  0  0  0  0  0  0  0  0  0  0
    1.6353    0.4486    0.0000 C    0  0  0  0  0  0  0  0  0  0  0  0
    2.4348    0.6519    0.0000 C    0  0  0  0  0  0  0  0  0  0  0  0
    2.9554    1.5893    0.0000 C    0  0  0  0  0  0  0  0  0  0  0  0
    3.6697    2.0020    0.0000 C    0  0  0  0  0  0  0  0  0  0  0  0
    3.9753    2.7684    0.0000 C    0  0  0  0  0  0  0  0  0  0  0  0
    3.5348    3.4660    0.0000 C    0  0  0  0  0  0  0  0  0  0  0  0
    4.7985    2.7146    0.0000 C    0  0  0  0  0  0  0  0  0  0  0  0
    5.3259    3.3490    0.0000 C    0  0  0  0  0  0  0  0  0  0  0  0
    6.1390    3.2095    0.0000 C    0  0  0  0  0  0  0  0  0  0  0  0
    6.6664    3.8440    0.0000 C    0  0  0  0  0  0  0  0  0  0  0  0
    6.3806    4.6179    0.0000 O    0  0  0  0  0  0  0  0  0  0  0  0
    7.4795    3.7044    0.0000 O    0  0  0  0  0  0  0  0  0  0  0  0
    5.0018    1.9151    0.0000 C    0  0  0  0  0  0  0  0  0  0  0  0
    4.3042    1.4746    0.0000 N    0  3  0  0  0  0  0  0  0  0  0  0
    4.3499    0.0000    0.0000 Fe   0  0  1  0  0  0  0  0  0  0  0  0
    5.8245    0.0457    0.0000 N    0  0  0  0  0  0  0  0  0  0  0  0
    6.2649   -0.6519    0.0000 C    0  0  0  0  0  0  0  0  0  0  0  0
    5.7444   -1.5893    0.0000 C    0  0  0  0  0  0  0  0  0  0  0  0
    5.0300   -2.0020    0.0000 C    0  0  0  0  0  0  0  0  0  0  0  0
    4.3956   -1.4746    0.0000 N    0  3  0  0  0  0  0  0  0  0  0  0
    3.6980   -1.9151    0.0000 C    0  0  0  0  0  0  0  0  0  0  0  0
    2.7605   -1.3945    0.0000 C    0  0  0  0  0  0  0  0  0  0  0  0
    2.3479   -0.6802    0.0000 C    0  0  0  0  0  0  0  0  0  0  0  0
    2.8752   -0.0457    0.0000 N    0  0  0  0  0  0  0  0  0  0  0  0
    1.5815   -0.3746    0.0000 C    0  0  0  0  0  0  0  0  0  0  0  0
    0.8839   -0.8150    0.0000 C    0  0  0  0  0  0  0  0  0  0  0  0
    3.9013   -2.7146    0.0000 C    0  0  0  0  0  0  0  0  0  0  0  0
    3.3739   -3.3490    0.0000 C    0  0  0  0  0  0  0  0  0  0  0  0
    3.6596   -4.1230    0.0000 O    0  0  0  0  0  0  0  0  0  0  0  0
    2.5608   -3.2095    0.0000 C    0  0  0  0  0  0  0  0  0  0  0  0
    4.7245   -2.7684    0.0000 C    0  0  0  0  0  0  0  0  0  0  0  0
    5.1649   -3.4660    0.0000 C    0  0  0  0  0  0  0  0  0  0  0  0
    7.0645   -0.4486    0.0000 C    0  0  0  0  0  0  0  0  0  0  0  0
    7.6989   -0.9760    0.0000 C    0  0  0  0  0  0  0  0  0  0  0  0
    7.1183    0.3746    0.0000 C    0  0  0  0  0  0  0  0  0  0  0  0
    7.8159    0.8150    0.0000 C    0  0  0  0  0  0  0  0  0  0  0  0
    7.7833    1.6394    0.0000 C    0  0  0  0  0  0  0  0  0  0  0  0
    8.4809    2.0798    0.0000 C    0  0  0  0  0  0  0  0  0  0  0  0
    8.4483    2.9042    0.0000 O    0  0  0  0  0  0  0  0  0  0  0  0
    9.2111    1.6958    0.0000 O    0  0  0  0  0  0  0  0  0  0  0  0
    6.3519    0.6802    0.0000 C    0  0  0  0  0  0  0  0  0  0  0  0
    5.9392    1.3945    0.0000 C    0  0  0  0  0  0  0  0  0  0  0  0
  1  2  1  0  0  0  0
  2  3  2  0  0  0  0
  2  4  1  0  0  0  0
  4  5  2  0  0  0  0
  5  6  1  0  0  0  0
  6  7  2  0  0  0  0
  7  8  1  0  0  0  0
  8  9  1  0  0  0  0
  8 10  2  0  0  0  0
 10 11  1  0  0  0  0
 11 12  1  0  0  0  0
 12 13  1  0  0  0  0
 13 14  1  0  0  0  0
 13 15  2  0  0  0  0
 10 16  1  0  0  0  0
 16 17  2  0  0  0  0
  7 17  1  0  0  0  0
 18 17  1  1  0  0  0
 18 19  1  0  0  0  0
 19 20  1  0  0  0  0
 20 21  2  0  0  0  0
 21 22  1  0  0  0  0
 22 23  2  0  0  0  0
 18 23  1  0  0  0  0
 23 24  1  0  0  0  0
 24 25  2  0  0  0  0
 25 26  1  0  0  0  0
 26 27  1  0  0  0  0
  5 27  1  0  0  0  0
 18 27  1  0  0  0  0
 26 28  2  0  0  0  0
  4 28  1  0  0  0  0
 28 29  1  0  0  0  0
 24 30  1  0  0  0  0
 30 31  1  0  0  0  0
 31 32  1  0  0  0  0
 31 33  2  0  0  0  0
 30 34  2  0  0  0  0
 22 34  1  0  0  0  0
 34 35  1  0  0  0  0
 20 36  1  0  0  0  0
 36 37  1  0  0  0  0
 36 38  2  0  0  0  0
 38 39  1  0  0  0  0
 39 40  1  0  0  0  0
 40 41  1  0  0  0  0
 41 42  1  0  0  0  0
 41 43  2  0  0  0  0
 38 44  1  0  0  0  0
 19 44  1  0  0  0  0
 44 45  2  0  0  0  0
 16 45  1  0  0  0  0
M  END
> <DRUGBANK_ID>
DB03418

> <DRUG_GROUPS>
experimental

> <GENERIC_NAME>
Diacetyldeuteroheme

> <CHEMICAL_FORMULA>
C34H32FeN4O6

> <MOLECULAR_WEIGHT>
648.486

> <EXACT_MASS>
648.167126909

> <IUPAC_NAME>
(1S)-10-acetyl-15,19-bis(2-carboxyethyl)-5-(1-hydroxyethenyl)-4,9,14,20-tetramethyl-2$l^{5},22,23$l^{5},25-tetraaza-1-ferraoctacyclo[11.9.1.1^{1,8}.1^{3,21}.0^{2,6}.0^{16,23}.0^{18,22}.0^{11,25}]pentacosa-2,4,6,8,10,12,14,16(23),17,19,21(24)-undecaene-2,23-bis(ylium)

> <IUPAC_TRADITIONAL_NAME>
diacetyldeuteroheme

> <INCHI_IDENTIFIER>
InChI=1S/C34H34N4O6.Fe/c1-15-21(7-9-31(41)42)27-14-28-22(8-10-32(43)44)16(2)24(36-28)12-29-34(20(6)40)18(4)26(38-29)13-30-33(19(5)39)17(3)25(37-30)11-23(15)35-27;/h11-14H,5,7-10H2,1-4,6H3,(H5,35,36,37,38,39,40,41,42,43,44);/q;+4/p-2/b23-11-,24-12-,25-11-,26-13-,27-14-,28-14-,29-12-,30-13-;

> <INCHI_KEY>
InChIKey=BCMMAWSTAFYQMK-IDTMDVKXSA-L

> <SMILES>
CC(=O)C1=C2C=C3C(C)=C(CCC(O)=O)C4=[N+]3[Fe@@]35N6C(=CC7=[N+]3C(=CC(N25)=C1C)C(C(O)=C)=C7C)C(C)=C(CCC(O)=O)C6=C4

> <JCHEM_ACCEPTOR_COUNT>
6

> <JCHEM_DONOR_COUNT>
3

> <JCHEM_ACIDIC_PKA>
3.24

> <JCHEM_BASIC_PKA>
-5.9

> <JCHEM_PHYSIOLOGICAL_CHARGE>
0

> <ALOGPS_LOGP>
0.32

> <JCHEM_LOGP>
-0.67

> <ALOGPS_LOGS>
-5.5

> <JCHEM_POLARIZABILITY>
71.38

> <JCHEM_POLAR_SURFACE_AREA>
129.52

> <JCHEM_REFRACTIVITY>
172.38

> <JCHEM_ROTATABLE_BOND_COUNT>
8

> <ALOGPS_SOLUBILITY>
2.48e-03 g/l __ 

$$$$
