
  Mrv0541 02231216552D          

 11 11  0  0  0  0            999 V2000
    2.1434    1.2375    0.0000 O   0  0  0  0  0  0  0  0  0  0  0  0
    1.4289    0.8250    0.0000 C   0  0  0  0  0  0  0  0  0  0  0  0
    1.4289    0.0000    0.0000 C   0  0  0  0  0  0  0  0  0  0  0  0
    0.7145   -0.4125    0.0000 C   0  0  0  0  0  0  0  0  0  0  0  0
    0.0000    0.0000    0.0000 C   0  0  0  0  0  0  0  0  0  0  0  0
    0.0000    0.8250    0.0000 C   0  0  0  0  0  0  0  0  0  0  0  0
    0.7145    1.2375    0.0000 C   0  0  0  0  0  0  0  0  0  0  0  0
    0.7145    2.0625    0.0000 O   0  0  0  0  0  0  0  0  0  0  0  0
   -0.7145   -0.4125    0.0000 N   0  3  0  0  0  0  0  0  0  0  0  0
   -0.7145   -1.2375    0.0000 O   0  5  0  0  0  0  0  0  0  0  0  0
   -1.4289    0.0000    0.0000 O   0  0  0  0  0  0  0  0  0  0  0  0
  1  2  1  0  0  0  0
  2  3  2  0  0  0  0
  3  4  1  0  0  0  0
  4  5  2  0  0  0  0
  5  6  1  0  0  0  0
  6  7  2  0  0  0  0
  2  7  1  0  0  0  0
  7  8  1  0  0  0  0
  5  9  1  0  0  0  0
  9 10  1  0  0  0  0
  9 11  2  0  0  0  0
M  END
> <DRUGBANK_ID>
DB03407

> <DRUG_GROUPS>
experimental

> <GENERIC_NAME>
4-Nitrocatechol

> <CHEMICAL_FORMULA>
C6H5NO4

> <MOLECULAR_WEIGHT>
155.1082

> <EXACT_MASS>
155.021857653

> <IUPAC_NAME>
4-nitrobenzene-1,2-diol

> <IUPAC_TRADITIONAL_NAME>
4-nitrocatechol

> <INCHI_IDENTIFIER>
InChI=1S/C6H5NO4/c8-5-2-1-4(7(10)11)3-6(5)9/h1-3,8-9H

> <INCHI_KEY>
InChIKey=XJNPNXSISMKQEX-UHFFFAOYSA-N

> <SMILES>
OC1=CC=C(C=C1O)[N+]([O-])=O

> <JCHEM_ACCEPTOR_COUNT>
4

> <JCHEM_DONOR_COUNT>
2

> <JCHEM_ACIDIC_PKA>
7.17

> <JCHEM_BASIC_PKA>
-6.4

> <JCHEM_PHYSIOLOGICAL_CHARGE>
0

> <ALOGPS_LOGP>
1.26

> <JCHEM_LOGP>
1.31

> <ALOGPS_LOGS>
-1.3

> <JCHEM_POLARIZABILITY>
13.07

> <JCHEM_POLAR_SURFACE_AREA>
86.28

> <JCHEM_REFRACTIVITY>
37.34

> <JCHEM_ROTATABLE_BOND_COUNT>
1

> <ALOGPS_SOLUBILITY>
7.76e+00 g/l __ 

$$$$
