
  Mrv0541 02231217102D          

 23 24  0  0  1  0            999 V2000
    2.1434   -0.4125    0.0000 N   0  0  0  0  0  0  0  0  0  0  0  0
    2.1434   -1.2375    0.0000 C   0  0  1  0  0  0  0  0  0  0  0  0
    1.4289   -1.6500    0.0000 C   0  0  2  0  0  0  0  0  0  0  0  0
    0.7145   -1.2375    0.0000 O   0  0  0  0  0  0  0  0  0  0  0  0
    1.4289   -2.4750    0.0000 C   0  0  1  0  0  0  0  0  0  0  0  0
    0.7145   -2.8875    0.0000 O   0  0  0  0  0  0  0  0  0  0  0  0
    2.1434   -2.8875    0.0000 C   0  0  2  0  0  0  0  0  0  0  0  0
    2.1434   -3.7125    0.0000 C   0  0  0  0  0  0  0  0  0  0  0  0
    2.8579   -4.1250    0.0000 O   0  0  0  0  0  0  0  0  0  0  0  0
    2.8579   -2.4750    0.0000 O   0  0  0  0  0  0  0  0  0  0  0  0
    2.8579   -1.6500    0.0000 C   0  0  2  0  0  0  0  0  0  0  0  0
    3.5724   -1.2375    0.0000 O   0  0  0  0  0  0  0  0  0  0  0  0
    4.2868   -1.6500    0.0000 C   0  0  2  0  0  0  0  0  0  0  0  0
    5.0013   -1.2375    0.0000 C   0  0  1  0  0  0  0  0  0  0  0  0
    5.0013   -0.4125    0.0000 O   0  0  0  0  0  0  0  0  0  0  0  0
    5.7158   -1.6500    0.0000 C   0  0  2  0  0  0  0  0  0  0  0  0
    6.4302   -1.2375    0.0000 O   0  0  0  0  0  0  0  0  0  0  0  0
    5.7158   -2.4750    0.0000 C   0  0  1  0  0  0  0  0  0  0  0  0
    6.4302   -2.8875    0.0000 O   0  0  0  0  0  0  0  0  0  0  0  0
    5.0013   -2.8875    0.0000 C   0  0  2  0  0  0  0  0  0  0  0  0
    5.0013   -3.7125    0.0000 O   0  0  0  0  0  0  0  0  0  0  0  0
    4.2868   -2.4750    0.0000 C   0  0  1  0  0  0  0  0  0  0  0  0
    3.5724   -2.8875    0.0000 O   0  0  0  0  0  0  0  0  0  0  0  0
  2  1  1  6  0  0  0
  2  3  1  0  0  0  0
  3  4  1  1  0  0  0
  3  5  1  0  0  0  0
  5  6  1  6  0  0  0
  5  7  1  0  0  0  0
  7  8  1  1  0  0  0
  8  9  1  0  0  0  0
  7 10  1  0  0  0  0
 10 11  1  0  0  0  0
  2 11  1  0  0  0  0
 11 12  1  1  0  0  0
 13 12  1  6  0  0  0
 13 14  1  0  0  0  0
 14 15  1  1  0  0  0
 14 16  1  0  0  0  0
 16 17  1  6  0  0  0
 16 18  1  0  0  0  0
 18 19  1  1  0  0  0
 18 20  1  0  0  0  0
 20 21  1  6  0  0  0
 20 22  1  0  0  0  0
 13 22  1  0  0  0  0
 22 23  1  1  0  0  0
M  END
> <DRUGBANK_ID>
DB03779

> <DRUG_GROUPS>
experimental

> <GENERIC_NAME>
Glucosaminyl-(Alpha-6)-D-Myo-Inositol

> <CHEMICAL_FORMULA>
C12H23NO10

> <MOLECULAR_WEIGHT>
341.3117

> <EXACT_MASS>
341.132195961

> <IUPAC_NAME>
(1R,2S,3s,4R,5S,6r)-6-{[(2R,3S,4S,5R,6S)-3-amino-4,5-dihydroxy-6-(hydroxymethyl)oxan-2-yl]oxy}cyclohexane-1,2,3,4,5-pentol

> <IUPAC_TRADITIONAL_NAME>
(1R,2S,3s,4R,5S,6r)-6-{[(2R,3S,4S,5R,6S)-3-amino-4,5-dihydroxy-6-(hydroxymethyl)oxan-2-yl]oxy}cyclohexane-1,2,3,4,5-pentol

> <INCHI_IDENTIFIER>
InChI=1S/C12H23NO10/c13-3-5(16)4(15)2(1-14)22-12(3)23-11-9(20)7(18)6(17)8(19)10(11)21/h2-12,14-21H,1,13H2/t2-,3-,4-,5-,6-,7-,8+,9+,10-,11-,12+/m0/s1

> <INCHI_KEY>
InChIKey=HEPUIGACZYVUCD-JPGQGNGZSA-N

> <SMILES>
N[C@H]1[C@H](O)[C@@H](O)[C@H](CO)O[C@@H]1O[C@@H]1[C@@H](O)[C@H](O)[C@@H](O)[C@H](O)[C@H]1O

> <JCHEM_ACCEPTOR_COUNT>
11

> <JCHEM_DONOR_COUNT>
9

> <JCHEM_ACIDIC_PKA>
12.25

> <JCHEM_BASIC_PKA>
8.13

> <JCHEM_PHYSIOLOGICAL_CHARGE>
1

> <ALOGPS_LOGP>
-2.8

> <JCHEM_LOGP>
-5.7

> <ALOGPS_LOGS>
0.05

> <JCHEM_POLARIZABILITY>
31.67

> <JCHEM_POLAR_SURFACE_AREA>
206.32

> <JCHEM_REFRACTIVITY>
69.85

> <JCHEM_ROTATABLE_BOND_COUNT>
3

> <ALOGPS_SOLUBILITY>
3.87e+02 g/l __ 

$$$$
