
  Mrv0541 02231216412D          

  6  5  0  0  0  0            999 V2000
    1.2375    2.1434    0.0000 C    0  0  0  0  0  0  0  0  0  0  0  0
    0.8250    1.4289    0.0000 Se   0  0  0  0  0  0  0  0  0  0  0  0
    1.2375    0.7145    0.0000 C    0  0  0  0  0  0  0  0  0  0  0  0
    0.8250    0.0000    0.0000 C    0  0  0  0  0  0  0  0  0  0  0  0
    1.2375   -0.7145    0.0000 O    0  5  0  0  0  0  0  0  0  0  0  0
    0.0000    0.0000    0.0000 O    0  0  0  0  0  0  0  0  0  0  0  0
  1  2  1  0  0  0  0
  2  3  1  0  0  0  0
  3  4  1  0  0  0  0
  4  5  1  0  0  0  0
  4  6  2  0  0  0  0
M  END
> <DRUGBANK_ID>
DB03098

> <DRUG_GROUPS>
experimental

> <GENERIC_NAME>
[Methylseleno]Acetate

> <CHEMICAL_FORMULA>
C3H5O2Se

> <MOLECULAR_WEIGHT>
152.03

> <EXACT_MASS>
152.945476232

> <IUPAC_NAME>
2-(methylselanyl)acetate

> <IUPAC_TRADITIONAL_NAME>
2-(methylselanyl)acetate

> <INCHI_IDENTIFIER>
InChI=1S/C3H6O2Se/c1-6-2-3(4)5/h2H2,1H3,(H,4,5)/p-1

> <INCHI_KEY>
InChIKey=UOULLTHLSZQUIN-UHFFFAOYSA-M

> <SMILES>
C[Se]CC([O-])=O

> <JCHEM_ACCEPTOR_COUNT>
2

> <JCHEM_DONOR_COUNT>
0

> <JCHEM_ACIDIC_PKA>
3.11

> <JCHEM_PHYSIOLOGICAL_CHARGE>
-1

> <ALOGPS_LOGP>
-0.19

> <JCHEM_LOGP>
-0.15

> <ALOGPS_LOGS>
-0.2

> <JCHEM_POLARIZABILITY>
8.99

> <JCHEM_POLAR_SURFACE_AREA>
40.13

> <JCHEM_REFRACTIVITY>
41.28

> <JCHEM_ROTATABLE_BOND_COUNT>
2

> <ALOGPS_SOLUBILITY>
1.07e+02 g/l __ 

$$$$
