
  Mrv0541 02231216572D          

 29 30  0  0  1  0            999 V2000
    1.1526   -5.1578    0.0000 O   0  0  0  0  0  0  0  0  0  0  0  0
    1.9453   -5.3867    0.0000 C   0  0  0  0  0  0  0  0  0  0  0  0
    2.5397   -4.8146    0.0000 O   0  0  0  0  0  0  0  0  0  0  0  0
    2.1434   -6.1875    0.0000 C   0  0  0  0  0  0  0  0  0  0  0  0
    1.5489   -6.7595    0.0000 C   0  0  0  0  0  0  0  0  0  0  0  0
    1.7471   -7.5604    0.0000 C   0  0  2  0  0  0  0  0  0  0  0  0
    1.1526   -8.1324    0.0000 C   0  0  0  0  0  0  0  0  0  0  0  0
    0.3600   -7.9036    0.0000 C   0  0  0  0  0  0  0  0  0  0  0  0
   -0.2345   -8.4756    0.0000 C   0  0  0  0  0  0  0  0  0  0  0  0
   -0.0363   -9.2765    0.0000 C   0  0  0  0  0  0  0  0  0  0  0  0
   -0.6308   -9.8485    0.0000 C   0  0  0  0  0  0  0  0  0  0  0  0
   -1.4234   -9.6197    0.0000 C   0  0  0  0  0  0  0  0  0  0  0  0
   -1.6216   -8.8189    0.0000 C   0  0  0  0  0  0  0  0  0  0  0  0
   -1.0271   -8.2468    0.0000 C   0  0  0  0  0  0  0  0  0  0  0  0
    2.5397   -7.7892    0.0000 N   0  0  0  0  0  0  0  0  0  0  0  0
    3.1342   -7.2172    0.0000 C   0  0  0  0  0  0  0  0  0  0  0  0
    2.9360   -6.4163    0.0000 O   0  0  0  0  0  0  0  0  0  0  0  0
    3.9268   -7.4460    0.0000 C   0  0  0  0  0  0  0  0  0  0  0  0
    4.5213   -6.8739    0.0000 C   0  0  0  0  0  0  0  0  0  0  0  0
    5.3140   -7.1028    0.0000 C   0  0  0  0  0  0  0  0  0  0  0  0
    5.9084   -6.5307    0.0000 C   0  0  0  0  0  0  0  0  0  0  0  0
    6.7011   -6.7595    0.0000 C   0  0  0  0  0  0  0  0  0  0  0  0
    7.2955   -6.1875    0.0000 C   0  0  0  0  0  0  0  0  0  0  0  0
    8.0882   -6.4163    0.0000 C   0  0  0  0  0  0  0  0  0  0  0  0
    8.6826   -5.8443    0.0000 C   0  0  0  0  0  0  0  0  0  0  0  0
    9.4753   -6.0731    0.0000 C   0  0  0  0  0  0  0  0  0  0  0  0
    9.6734   -6.8739    0.0000 C   0  0  0  0  0  0  0  0  0  0  0  0
    9.0790   -7.4460    0.0000 C   0  0  0  0  0  0  0  0  0  0  0  0
    8.2863   -7.2172    0.0000 C   0  0  0  0  0  0  0  0  0  0  0  0
  1  2  1  0  0  0  0
  2  3  2  0  0  0  0
  2  4  1  0  0  0  0
  4  5  1  0  0  0  0
  5  6  1  0  0  0  0
  6  7  1  0  0  0  0
  7  8  1  0  0  0  0
  8  9  1  0  0  0  0
  9 10  2  0  0  0  0
 10 11  1  0  0  0  0
 11 12  2  0  0  0  0
 12 13  1  0  0  0  0
 13 14  2  0  0  0  0
  9 14  1  0  0  0  0
  6 15  1  1  0  0  0
 15 16  1  0  0  0  0
 16 17  2  0  0  0  0
 16 18  1  0  0  0  0
 18 19  1  0  0  0  0
 19 20  1  0  0  0  0
 20 21  1  0  0  0  0
 21 22  1  0  0  0  0
 22 23  1  0  0  0  0
 23 24  1  0  0  0  0
 24 25  2  0  0  0  0
 25 26  1  0  0  0  0
 26 27  2  0  0  0  0
 27 28  1  0  0  0  0
 28 29  2  0  0  0  0
 24 29  1  0  0  0  0
M  END
> <DRUGBANK_ID>
DB03471

> <DRUG_GROUPS>
experimental

> <GENERIC_NAME>
6-Phenyl-4(R)-(7-Phenyl-Heptanoylamino)-Hexanoic Acid

> <CHEMICAL_FORMULA>
C25H33NO3

> <MOLECULAR_WEIGHT>
395.5344

> <EXACT_MASS>
395.246043927

> <IUPAC_NAME>
(4S)-6-phenyl-4-(7-phenylheptanamido)hexanoic acid

> <IUPAC_TRADITIONAL_NAME>
(4S)-6-phenyl-4-(7-phenylheptanamido)hexanoic acid

> <INCHI_IDENTIFIER>
InChI=1S/C25H33NO3/c27-24(16-10-2-1-5-11-21-12-6-3-7-13-21)26-23(19-20-25(28)29)18-17-22-14-8-4-9-15-22/h3-4,6-9,12-15,23H,1-2,5,10-11,16-20H2,(H,26,27)(H,28,29)/t23-/m0/s1

> <INCHI_KEY>
InChIKey=SMNHQYPORNSAQH-QHCPKHFHSA-N

> <SMILES>
OC(=O)CC[C@H](CCC1=CC=CC=C1)NC(=O)CCCCCCC1=CC=CC=C1

> <JCHEM_ACCEPTOR_COUNT>
3

> <JCHEM_DONOR_COUNT>
2

> <JCHEM_ACIDIC_PKA>
4.6

> <JCHEM_BASIC_PKA>
0.53

> <JCHEM_PHYSIOLOGICAL_CHARGE>
-1

> <ALOGPS_LOGP>
5.17

> <JCHEM_LOGP>
5.77

> <ALOGPS_LOGS>
-6.3

> <JCHEM_POLARIZABILITY>
46.57

> <JCHEM_POLAR_SURFACE_AREA>
66.4

> <JCHEM_REFRACTIVITY>
116.27

> <JCHEM_ROTATABLE_BOND_COUNT>
14

> <ALOGPS_SOLUBILITY>
2.01e-04 g/l __ 

$$$$
