
  Mrv0541 02231217092D          

 12 12  0  0  1  0            999 V2000
    2.1434    1.2375    0.0000 N   0  0  0  0  0  0  0  0  0  0  0  0
    1.4289    0.8250    0.0000 C   0  0  1  0  0  0  0  0  0  0  0  0
    1.4289    0.0000    0.0000 C   0  0  0  0  0  0  0  0  0  0  0  0
    0.7145   -0.4125    0.0000 C   0  0  0  0  0  0  0  0  0  0  0  0
    0.0000    0.0000    0.0000 C   0  0  0  0  0  0  0  0  0  0  0  0
    0.0000    0.8250    0.0000 C   0  0  1  0  0  0  0  0  0  0  0  0
   -0.7145    1.2375    0.0000 O   0  0  0  0  0  0  0  0  0  0  0  0
    0.7145    1.2375    0.0000 C   0  0  2  0  0  0  0  0  0  0  0  0
    0.7145    2.0625    0.0000 O   0  0  0  0  0  0  0  0  0  0  0  0
    0.7145   -1.2375    0.0000 C   0  0  0  0  0  0  0  0  0  0  0  0
    1.4289   -1.6500    0.0000 O   0  5  0  0  0  0  0  0  0  0  0  0
    0.0000   -1.6500    0.0000 O   0  0  0  0  0  0  0  0  0  0  0  0
  2  1  1  1  0  0  0
  2  3  1  0  0  0  0
  3  4  2  0  0  0  0
  4  5  1  0  0  0  0
  5  6  1  0  0  0  0
  6  7  1  1  0  0  0
  6  8  1  0  0  0  0
  2  8  1  0  0  0  0
  8  9  1  6  0  0  0
  4 10  1  0  0  0  0
 10 11  1  0  0  0  0
 10 12  2  0  0  0  0
M  END
> <DRUGBANK_ID>
DB03746

> <DRUG_GROUPS>
experimental

> <GENERIC_NAME>
3-Amino-4,5-Dihydroxy-Cyclohex-1-Enecarboxylate

> <CHEMICAL_FORMULA>
C7H10NO4

> <MOLECULAR_WEIGHT>
172.1586

> <EXACT_MASS>
172.060982813

> <IUPAC_NAME>
(3S,4R,5R)-3-amino-4,5-dihydroxycyclohex-1-ene-1-carboxylate

> <IUPAC_TRADITIONAL_NAME>
(3S,4R,5R)-3-amino-4,5-dihydroxycyclohex-1-ene-1-carboxylate

> <INCHI_IDENTIFIER>
InChI=1S/C7H11NO4/c8-4-1-3(7(11)12)2-5(9)6(4)10/h1,4-6,9-10H,2,8H2,(H,11,12)/p-1/t4-,5+,6+/m0/s1

> <INCHI_KEY>
InChIKey=WPZSUTUAATWRPU-KVQBGUIXSA-M

> <SMILES>
N[C@H]1C=C(C[C@@H](O)[C@@H]1O)C([O-])=O

> <JCHEM_ACCEPTOR_COUNT>
5

> <JCHEM_DONOR_COUNT>
3

> <JCHEM_ACIDIC_PKA>
4

> <JCHEM_BASIC_PKA>
8.92

> <JCHEM_PHYSIOLOGICAL_CHARGE>
0

> <ALOGPS_LOGP>
-1.9

> <JCHEM_LOGP>
-4

> <ALOGPS_LOGS>
0.3

> <JCHEM_POLARIZABILITY>
15.91

> <JCHEM_POLAR_SURFACE_AREA>
106.61

> <JCHEM_REFRACTIVITY>
51.45

> <JCHEM_ROTATABLE_BOND_COUNT>
1

> <ALOGPS_SOLUBILITY>
3.81e+02 g/l __ 

$$$$
