
  Mrv0541 02231216482D          

  7  7  0  0  1  0            999 V2000
   -0.1467    2.3518    0.0000 N   0  0  0  0  0  0  0  0  0  0  0  0
    0.5678    1.9393    0.0000 C   0  0  0  0  0  0  0  0  0  0  0  0
    0.5678    1.1143    0.0000 C   0  0  2  0  0  0  0  0  0  0  0  0
    1.2352    0.6294    0.0000 C   0  0  0  0  0  0  0  0  0  0  0  0
    0.9803   -0.1553    0.0000 C   0  0  0  0  0  0  0  0  0  0  0  0
    0.1553   -0.1553    0.0000 C   0  0  0  0  0  0  0  0  0  0  0  0
   -0.0997    0.6294    0.0000 N   0  0  0  0  0  0  0  0  0  0  0  0
  1  2  1  0  0  0  0
  3  2  1  6  0  0  0
  3  4  1  0  0  0  0
  4  5  1  0  0  0  0
  5  6  1  0  0  0  0
  6  7  1  0  0  0  0
  3  7  1  0  0  0  0
M  END
> <DRUGBANK_ID>
DB03253

> <DRUG_GROUPS>
experimental

> <GENERIC_NAME>
(2s)-Pyrrolidin-2-Ylmethylamine

> <CHEMICAL_FORMULA>
C5H12N2

> <MOLECULAR_WEIGHT>
100.1622

> <EXACT_MASS>
100.100048394

> <IUPAC_NAME>
(2S)-pyrrolidin-2-ylmethanamine

> <IUPAC_TRADITIONAL_NAME>
(2S)-pyrrolidin-2-ylmethanamine

> <INCHI_IDENTIFIER>
InChI=1S/C5H12N2/c6-4-5-2-1-3-7-5/h5,7H,1-4,6H2/t5-/m0/s1

> <INCHI_KEY>
InChIKey=AUKXFNABVHIUAC-YFKPBYRVSA-N

> <SMILES>
NC[C@@H]1CCCN1

> <JCHEM_ACCEPTOR_COUNT>
2

> <JCHEM_DONOR_COUNT>
2

> <JCHEM_BASIC_PKA>
10.97

> <JCHEM_PHYSIOLOGICAL_CHARGE>
2

> <ALOGPS_LOGP>
-0.69

> <JCHEM_LOGP>
-0.52

> <ALOGPS_LOGS>
0.63

> <JCHEM_POLARIZABILITY>
11.94

> <JCHEM_POLAR_SURFACE_AREA>
38.05

> <JCHEM_REFRACTIVITY>
29.85

> <JCHEM_ROTATABLE_BOND_COUNT>
1

> <ALOGPS_SOLUBILITY>
4.27e+02 g/l __ 

$$$$
