
  Mrv0541 02231217012D          

  8  7  0  0  1  0            999 V2000
    0.1105   -2.0625    0.0000 C   0  0  0  0  0  0  0  0  0  0  0  0
    0.1105   -1.2375    0.0000 C   0  0  2  0  0  0  0  0  0  0  0  0
   -0.6039   -0.8250    0.0000 O   0  0  0  0  0  0  0  0  0  0  0  0
    0.8250   -0.8250    0.0000 C   0  0  0  0  0  0  0  0  0  0  0  0
    0.8250    0.0000    0.0000 C   0  0  0  0  0  0  0  0  0  0  0  0
    0.8250    0.8250    0.0000 C   0  0  0  0  0  0  0  0  0  0  0  0
    1.6500    0.0000    0.0000 C   0  0  0  0  0  0  0  0  0  0  0  0
    0.0000    0.0000    0.0000 O   0  0  0  0  0  0  0  0  0  0  0  0
  1  2  1  0  0  0  0
  2  3  1  6  0  0  0
  2  4  1  0  0  0  0
  4  5  1  0  0  0  0
  5  6  1  0  0  0  0
  5  7  1  0  0  0  0
  5  8  1  0  0  0  0
M  END
> <DRUGBANK_ID>
DB03564

> <DRUG_GROUPS>
experimental

> <GENERIC_NAME>
(4r)-2-Methylpentane-2,4-Diol

> <CHEMICAL_FORMULA>
C6H14O2

> <MOLECULAR_WEIGHT>
118.1742

> <EXACT_MASS>
118.099379692

> <IUPAC_NAME>
(4S)-2-methylpentane-2,4-diol

> <IUPAC_TRADITIONAL_NAME>
2-methyl-2,4-pentanediol

> <INCHI_IDENTIFIER>
InChI=1S/C6H14O2/c1-5(7)4-6(2,3)8/h5,7-8H,4H2,1-3H3/t5-/m0/s1

> <INCHI_KEY>
InChIKey=SVTBMSDMJJWYQN-YFKPBYRVSA-N

> <SMILES>
C[C@H](O)CC(C)(C)O

> <JCHEM_ACCEPTOR_COUNT>
2

> <JCHEM_DONOR_COUNT>
2

> <JCHEM_ACIDIC_PKA>
15.12

> <JCHEM_BASIC_PKA>
-2.5

> <JCHEM_PHYSIOLOGICAL_CHARGE>
0

> <ALOGPS_LOGP>
0.34

> <JCHEM_LOGP>
-0.035

> <ALOGPS_LOGS>
0.14

> <JCHEM_POLARIZABILITY>
13.54

> <JCHEM_POLAR_SURFACE_AREA>
40.46

> <JCHEM_REFRACTIVITY>
32.89

> <JCHEM_ROTATABLE_BOND_COUNT>
2

> <ALOGPS_SOLUBILITY>
1.62e+02 g/l __ 

$$$$
