
  Mrv0541 02231216512D          

 13 13  0  0  0  0            999 V2000
   -2.8579   -2.4750    0.0000 O   0  0  0  0  0  0  0  0  0  0  0  0
   -2.1434   -2.0625    0.0000 S   0  0  0  0  0  0  0  0  0  0  0  0
   -1.7309   -2.7770    0.0000 O   0  0  0  0  0  0  0  0  0  0  0  0
   -2.5559   -1.3480    0.0000 O   0  0  0  0  0  0  0  0  0  0  0  0
   -1.4289   -1.6500    0.0000 C   0  0  0  0  0  0  0  0  0  0  0  0
   -0.7145   -2.0625    0.0000 C   0  0  0  0  0  0  0  0  0  0  0  0
    0.0000   -1.6500    0.0000 N   0  0  0  0  0  0  0  0  0  0  0  0
    0.7145   -2.0625    0.0000 C   0  0  0  0  0  0  0  0  0  0  0  0
    1.4289   -1.6500    0.0000 C   0  0  0  0  0  0  0  0  0  0  0  0
    2.1434   -2.0625    0.0000 C   0  0  0  0  0  0  0  0  0  0  0  0
    2.1434   -2.8875    0.0000 C   0  0  0  0  0  0  0  0  0  0  0  0
    1.4289   -3.3000    0.0000 C   0  0  0  0  0  0  0  0  0  0  0  0
    0.7145   -2.8875    0.0000 C   0  0  0  0  0  0  0  0  0  0  0  0
  1  2  1  0  0  0  0
  2  3  2  0  0  0  0
  2  4  2  0  0  0  0
  2  5  1  0  0  0  0
  5  6  1  0  0  0  0
  6  7  1  0  0  0  0
  7  8  1  0  0  0  0
  8  9  1  0  0  0  0
  9 10  1  0  0  0  0
 10 11  1  0  0  0  0
 11 12  1  0  0  0  0
 12 13  1  0  0  0  0
  8 13  1  0  0  0  0
M  END
> <DRUGBANK_ID>
DB03309

> <DRUG_GROUPS>
experimental

> <GENERIC_NAME>
N-Cyclohexyltaurine

> <SYNONYMS>


> <CHEMICAL_FORMULA>
C8H17NO3S

> <MOLECULAR_WEIGHT>
207.29

> <EXACT_MASS>
207.092914105

> <IUPAC_NAME>
2-(cyclohexylamino)ethane-1-sulfonic acid

> <IUPAC_TRADITIONAL_NAME>
N-cyclohexyltaurine

> <INCHI_IDENTIFIER>
InChI=1S/C8H17NO3S/c10-13(11,12)7-6-9-8-4-2-1-3-5-8/h8-9H,1-7H2,(H,10,11,12)

> <INCHI_KEY>
InChIKey=MKWKNSIESPFAQN-UHFFFAOYSA-N

> <SMILES>
OS(=O)(=O)CCNC1CCCCC1

> <JCHEM_ACCEPTOR_COUNT>
4

> <JCHEM_DONOR_COUNT>
2

> <JCHEM_ACIDIC_PKA>
-1.1

> <JCHEM_BASIC_PKA>
9.88

> <JCHEM_PHYSIOLOGICAL_CHARGE>
0

> <ALOGPS_LOGP>
-1.1

> <JCHEM_LOGP>
-0.59

> <ALOGPS_LOGS>
-1.7

> <JCHEM_POLARIZABILITY>
21.87

> <JCHEM_POLAR_SURFACE_AREA>
66.4

> <JCHEM_REFRACTIVITY>
50.39

> <JCHEM_ROTATABLE_BOND_COUNT>
4

> <ALOGPS_SOLUBILITY>
3.97e+00 g/l __ 

$$$$
