
  Mrv0541 02231216542D          

  4  3  0  0  0  0            999 V2000
    2.0625   -0.7145    0.0000 C   0  0  0  0  0  0  0  0  0  0  0  0
    1.6500    0.0000    0.0000 C   0  0  0  0  0  0  0  0  0  0  0  0
    0.8250    0.0000    0.0000 N   0  3  0  0  0  0  0  0  0  0  0  0
    0.0000    0.0000    0.0000 C   0  0  0  0  0  0  0  0  0  0  0  0
  1  2  1  0  0  0  0
  2  3  1  0  0  0  0
  3  4  3  0  0  0  0
M  END
> <DRUGBANK_ID>
DB03399

> <DRUG_GROUPS>
experimental

> <GENERIC_NAME>
Ethyl Isocyanide

> <CHEMICAL_FORMULA>
C3H6N

> <MOLECULAR_WEIGHT>
56.0864

> <EXACT_MASS>
56.050024197

> <IUPAC_NAME>
ethyl(methylidyne)azanium

> <IUPAC_TRADITIONAL_NAME>
ethyl isocyanide

> <INCHI_IDENTIFIER>
InChI=1S/C3H6N/c1-3-4-2/h2H,3H2,1H3/q+1

> <INCHI_KEY>
InChIKey=JEGVKBYNUPNGJU-UHFFFAOYSA-N

> <SMILES>
CC[N+]#C

> <JCHEM_ACCEPTOR_COUNT>
0

> <JCHEM_DONOR_COUNT>
0

> <JCHEM_ACIDIC_PKA>
16.27

> <JCHEM_PHYSIOLOGICAL_CHARGE>
1

> <ALOGPS_LOGP>
1.58

> <JCHEM_LOGP>
-1.6

> <ALOGPS_LOGS>
-1.9

> <JCHEM_POLARIZABILITY>
6.57

> <JCHEM_POLAR_SURFACE_AREA>
4.36

> <JCHEM_REFRACTIVITY>
17.46

> <JCHEM_ROTATABLE_BOND_COUNT>
0

> <ALOGPS_SOLUBILITY>
1.08e+00 g/l __ 

$$$$
