
  Mrv0541 02231216532D          

 34 38  0  0  0  0            999 V2000
    9.1414   -3.5893    0.0000 C   0  0  0  0  0  0  0  0  0  0  0  0
    8.4269   -4.0018    0.0000 C   0  0  0  0  0  0  0  0  0  0  0  0
    8.4269   -4.8268    0.0000 N   0  0  0  0  0  0  0  0  0  0  0  0
    7.7125   -3.5893    0.0000 N   0  0  0  0  0  0  0  0  0  0  0  0
    6.9980   -4.0018    0.0000 C   0  0  0  0  0  0  0  0  0  0  0  0
    6.2835   -3.5893    0.0000 C   0  0  0  0  0  0  0  0  0  0  0  0
    6.2835   -2.7643    0.0000 C   0  0  0  0  0  0  0  0  0  0  0  0
    6.9980   -2.3518    0.0000 C   0  0  0  0  0  0  0  0  0  0  0  0
    7.7125   -2.7643    0.0000 C   0  0  0  0  0  0  0  0  0  0  0  0
    5.5691   -2.3518    0.0000 O   0  0  0  0  0  0  0  0  0  0  0  0
    4.8546   -2.7643    0.0000 C   0  0  0  0  0  0  0  0  0  0  0  0
    4.8546   -3.5893    0.0000 C   0  0  0  0  0  0  0  0  0  0  0  0
    4.1401   -4.0018    0.0000 C   0  0  0  0  0  0  0  0  0  0  0  0
    3.4256   -3.5893    0.0000 C   0  0  0  0  0  0  0  0  0  0  0  0
    2.6410   -3.8442    0.0000 N   0  0  0  0  0  0  0  0  0  0  0  0
    2.1561   -3.1768    0.0000 C   0  0  0  0  0  0  0  0  0  0  0  0
    1.3311   -3.1768    0.0000 C   0  0  0  0  0  0  0  0  0  0  0  0
    2.6410   -2.5093    0.0000 N   0  3  0  0  0  0  0  0  0  0  0  0
    2.3861   -1.7247    0.0000 C   0  0  0  0  0  0  0  0  0  0  0  0
    1.5791   -1.5532    0.0000 C   0  0  0  0  0  0  0  0  0  0  0  0
    1.0271   -2.1663    0.0000 C   0  0  0  0  0  0  0  0  0  0  0  0
    0.2201   -1.9948    0.0000 C   0  0  0  0  0  0  0  0  0  0  0  0
   -0.0348   -1.2101    0.0000 C   0  0  0  0  0  0  0  0  0  0  0  0
   -0.8418   -1.0386    0.0000 C   0  0  0  0  0  0  0  0  0  0  0  0
   -1.0967   -0.2540    0.0000 C   0  0  0  0  0  0  0  0  0  0  0  0
   -0.5447    0.3591    0.0000 C   0  0  0  0  0  0  0  0  0  0  0  0
    0.2623    0.1876    0.0000 C   0  0  0  0  0  0  0  0  0  0  0  0
    0.5172   -0.5971    0.0000 C   0  0  0  0  0  0  0  0  0  0  0  0
    1.3242   -0.7686    0.0000 C   0  0  0  0  0  0  0  0  0  0  0  0
   -0.7997    1.1437    0.0000 C   0  0  0  0  0  0  0  0  0  0  0  0
   -1.6066    1.3152    0.0000 N   0  0  0  0  0  0  0  0  0  0  0  0
   -0.2476    1.7568    0.0000 N   0  0  0  0  0  0  0  0  0  0  0  0
    3.4256   -2.7643    0.0000 C   0  0  0  0  0  0  0  0  0  0  0  0
    4.1401   -2.3518    0.0000 C   0  0  0  0  0  0  0  0  0  0  0  0
  1  2  1  0  0  0  0
  2  3  2  0  0  0  0
  2  4  1  0  0  0  0
  4  5  1  0  0  0  0
  5  6  1  0  0  0  0
  6  7  1  0  0  0  0
  7  8  1  0  0  0  0
  8  9  1  0  0  0  0
  4  9  1  0  0  0  0
  7 10  1  0  0  0  0
 10 11  1  0  0  0  0
 11 12  4  0  0  0  0
 12 13  4  0  0  0  0
 13 14  4  0  0  0  0
 14 15  4  0  0  0  0
 15 16  4  0  0  0  0
 16 17  1  0  0  0  0
 16 18  4  0  0  0  0
 18 19  1  0  0  0  0
 19 20  1  0  0  0  0
 20 21  2  0  0  0  0
 21 22  1  0  0  0  0
 22 23  2  0  0  0  0
 23 24  1  0  0  0  0
 24 25  2  0  0  0  0
 25 26  1  0  0  0  0
 26 27  2  0  0  0  0
 27 28  1  0  0  0  0
 23 28  1  0  0  0  0
 28 29  2  0  0  0  0
 20 29  1  0  0  0  0
 26 30  1  0  0  0  0
 30 31  1  0  0  0  0
 30 32  2  0  0  0  0
 18 33  4  0  0  0  0
 14 33  4  0  0  0  0
 33 34  4  0  0  0  0
 11 34  4  0  0  0  0
M  END
> <DRUGBANK_ID>
DB03373

> <DRUG_GROUPS>
experimental

> <GENERIC_NAME>
ZK-806711

> <CHEMICAL_FORMULA>
C27H30N6O

> <MOLECULAR_WEIGHT>
454.5667

> <EXACT_MASS>
454.248109612

> <IUPAC_NAME>
1-[(7-carbamimidoylnaphthalen-2-yl)methyl]-6-[(1-ethanimidoylpiperidin-4-yl)oxy]-2-methyl-1,3-benzodiazol-1-ium

> <IUPAC_TRADITIONAL_NAME>
1-[(7-carbamimidoylnaphthalen-2-yl)methyl]-6-[(1-ethanimidoylpiperidin-4-yl)oxy]-2-methyl-1,3-benzodiazol-1-ium

> <SMILES>
CC(=N)N1CCC(CC1)Oc1ccc2nc(C)[n+](CC3=CC=C4C=CC(=CC4=C3)C(N)=N)c2c1

> <JCHEM_ACCEPTOR_COUNT>
6

> <JCHEM_DONOR_COUNT>
3

> <JCHEM_BASIC_PKA>
12.45

> <JCHEM_PHYSIOLOGICAL_CHARGE>
3

> <ALOGPS_LOGP>
4.83

> <JCHEM_LOGP>
-2.3

> <ALOGPS_LOGS>
-5.3

> <JCHEM_POLARIZABILITY>
50.51

> <JCHEM_POLAR_SURFACE_AREA>
102.96

> <JCHEM_REFRACTIVITY>
156.1

> <JCHEM_ROTATABLE_BOND_COUNT>
5

> <ALOGPS_SOLUBILITY>
2.22e-03 g/l __ 

$$$$
