
  Mrv0541 02231217142D          

 30 29  0  0  0  0            999 V2000
   -0.1914    0.7145    0.0000 C   0  0  0  0  0  0  0  0  0  0  0  0
    0.5230    1.1270    0.0000 N   0  0  0  0  0  0  0  0  0  0  0  0
    0.5230    1.9520    0.0000 C   0  0  0  0  0  0  0  0  0  0  0  0
    1.2375    0.7145    0.0000 C   0  0  0  0  0  0  0  0  0  0  0  0
    1.9520    1.1270    0.0000 C   0  0  0  0  0  0  0  0  0  0  0  0
    2.6664    0.7145    0.0000 C   0  0  0  0  0  0  0  0  0  0  0  0
    3.3809    1.1270    0.0000 C   0  0  0  0  0  0  0  0  0  0  0  0
    3.3809    1.9520    0.0000 C   0  0  0  0  0  0  0  0  0  0  0  0
    4.0954    0.7145    0.0000 C   0  0  0  0  0  0  0  0  0  0  0  0
    4.8099    1.1270    0.0000 C   0  0  0  0  0  0  0  0  0  0  0  0
    5.5243    0.7145    0.0000 C   0  0  0  0  0  0  0  0  0  0  0  0
    6.2388    1.1270    0.0000 C   0  0  0  0  0  0  0  0  0  0  0  0
    6.2388    1.9520    0.0000 C   0  0  0  0  0  0  0  0  0  0  0  0
    6.9533    0.7145    0.0000 C   0  0  0  0  0  0  0  0  0  0  0  0
    7.6677    1.1270    0.0000 C   0  0  0  0  0  0  0  0  0  0  0  0
    8.3822    0.7145    0.0000 C   0  0  0  0  0  0  0  0  0  0  0  0
    9.0967    1.1270    0.0000 C   0  0  0  0  0  0  0  0  0  0  0  0
    9.8112    0.7145    0.0000 C   0  0  0  0  0  0  0  0  0  0  0  0
    9.8112   -0.1105    0.0000 C   0  0  0  0  0  0  0  0  0  0  0  0
   10.5256    1.1270    0.0000 C   0  0  0  0  0  0  0  0  0  0  0  0
   11.2401    0.7145    0.0000 C   0  0  0  0  0  0  0  0  0  0  0  0
   11.9546    1.1270    0.0000 C   0  0  0  0  0  0  0  0  0  0  0  0
   12.6690    0.7145    0.0000 C   0  0  0  0  0  0  0  0  0  0  0  0
   12.6690   -0.1105    0.0000 C   0  0  0  0  0  0  0  0  0  0  0  0
   13.3835    1.1270    0.0000 C   0  0  0  0  0  0  0  0  0  0  0  0
   13.3835    1.9520    0.0000 C   0  0  0  0  0  0  0  0  0  0  0  0
   14.0980    2.3645    0.0000 C   0  0  0  0  0  0  0  0  0  0  0  0
   14.0980    3.1895    0.0000 C   0  0  0  0  0  0  0  0  0  0  0  0
   13.3835    3.6020    0.0000 C   0  0  0  0  0  0  0  0  0  0  0  0
   14.8124    3.6020    0.0000 C   0  0  0  0  0  0  0  0  0  0  0  0
  1  2  1  0  0  0  0
  2  3  1  0  0  0  0
  2  4  1  0  0  0  0
  4  5  1  0  0  0  0
  5  6  1  0  0  0  0
  6  7  1  0  0  0  0
  7  8  1  0  0  0  0
  7  9  2  0  0  0  0
  9 10  1  0  0  0  0
 10 11  1  0  0  0  0
 11 12  1  0  0  0  0
 12 13  1  0  0  0  0
 12 14  2  0  0  0  0
 14 15  1  0  0  0  0
 15 16  1  0  0  0  0
 16 17  1  0  0  0  0
 17 18  2  0  0  0  0
 18 19  1  0  0  0  0
 18 20  1  0  0  0  0
 20 21  1  0  0  0  0
 21 22  1  0  0  0  0
 22 23  2  0  0  0  0
 23 24  1  0  0  0  0
 23 25  1  0  0  0  0
 25 26  1  0  0  0  0
 26 27  1  0  0  0  0
 27 28  2  0  0  0  0
 28 29  1  0  0  0  0
 28 30  1  0  0  0  0
M  END
> <DRUGBANK_ID>
DB03874

> <DRUG_GROUPS>
experimental

> <GENERIC_NAME>
(4e,8e,12z,16z)-N,N,4,8,13,17,21-Heptamethyldocosa-4,8,12,16,20-Pentaen-1-Amine

> <CHEMICAL_FORMULA>
C29H51N

> <MOLECULAR_WEIGHT>
413.7219

> <EXACT_MASS>
413.402150637

> <IUPAC_NAME>
dimethyl[(4E,8E,12E,16E)-4,8,13,17,21-pentamethyldocosa-4,8,12,16,20-pentaen-1-yl]amine

> <IUPAC_TRADITIONAL_NAME>
dimethyl[(4E,8E,12E,16E)-4,8,13,17,21-pentamethyldocosa-4,8,12,16,20-pentaen-1-yl]amine

> <INCHI_IDENTIFIER>
InChI=1S/C29H51N/c1-25(2)15-11-18-28(5)21-12-19-26(3)16-9-10-17-27(4)20-13-22-29(6)23-14-24-30(7)8/h15-17,21-22H,9-14,18-20,23-24H2,1-8H3/b26-16+,27-17+,28-21+,29-22+

> <INCHI_KEY>
InChIKey=OBYAAZRQFIVRJS-GUUMBNHASA-N

> <SMILES>
CN(C)CCC\C(C)=C\CC\C(C)=C\CC\C=C(/C)CC\C=C(/C)CCC=C(C)C

> <JCHEM_ACCEPTOR_COUNT>
1

> <JCHEM_DONOR_COUNT>
0

> <JCHEM_BASIC_PKA>
9.86

> <JCHEM_PHYSIOLOGICAL_CHARGE>
1

> <ALOGPS_LOGP>
8

> <JCHEM_LOGP>
8.92

> <ALOGPS_LOGS>
-5.7

> <JCHEM_POLARIZABILITY>
56.36

> <JCHEM_POLAR_SURFACE_AREA>
3.24

> <JCHEM_REFRACTIVITY>
143.67

> <JCHEM_ROTATABLE_BOND_COUNT>
16

> <ALOGPS_SOLUBILITY>
8.91e-04 g/l __ 

$$$$
