
  Mrv0541 02231216562D          

 23 22  0  0  1  0            999 V2000
   12.6177    4.8099    0.0000 N   0  0  0  0  0  0  0  0  0  0  0  0
   12.6177    3.9849    0.0000 C   0  0  1  0  0  0  0  0  0  0  0  0
   11.9033    3.5724    0.0000 C   0  0  0  0  0  0  0  0  0  0  0  0
   11.1888    3.9849    0.0000 C   0  0  0  0  0  0  0  0  0  0  0  0
   10.4743    3.5724    0.0000 C   0  0  0  0  0  0  0  0  0  0  0  0
    9.7599    3.9849    0.0000 C   0  0  0  0  0  0  0  0  0  0  0  0
    9.7599    4.8099    0.0000 O   0  0  0  0  0  0  0  0  0  0  0  0
    9.0454    3.5724    0.0000 N   0  0  0  0  0  0  0  0  0  0  0  0
    8.3309    3.9849    0.0000 C   0  0  2  0  0  0  0  0  0  0  0  0
    8.3309    4.8099    0.0000 C   0  0  0  0  0  0  0  0  0  0  0  0
    7.6164    5.2224    0.0000 S   0  0  0  0  0  0  0  0  0  0  0  0
    7.6164    3.5724    0.0000 C   0  0  0  0  0  0  0  0  0  0  0  0
    7.6164    2.7474    0.0000 O   0  0  0  0  0  0  0  0  0  0  0  0
    6.9020    3.9849    0.0000 N   0  0  0  0  0  0  0  0  0  0  0  0
    6.1875    3.5724    0.0000 C   0  0  2  0  0  0  0  0  0  0  0  0
    5.4730    3.9849    0.0000 C   0  0  0  0  0  0  0  0  0  0  0  0
    4.7586    3.5724    0.0000 C   0  0  0  0  0  0  0  0  0  0  0  0
    6.1875    2.7474    0.0000 C   0  0  0  0  0  0  0  0  0  0  0  0
    6.9020    2.3349    0.0000 O   0  0  0  0  0  0  0  0  0  0  0  0
    5.4730    2.3349    0.0000 O   0  0  0  0  0  0  0  0  0  0  0  0
   13.3322    3.5724    0.0000 C   0  0  0  0  0  0  0  0  0  0  0  0
   14.0467    3.9849    0.0000 O   0  0  0  0  0  0  0  0  0  0  0  0
   13.3322    2.7474    0.0000 O   0  0  0  0  0  0  0  0  0  0  0  0
  2  1  1  6  0  0  0
  2  3  1  0  0  0  0
  3  4  1  0  0  0  0
  4  5  1  0  0  0  0
  5  6  1  0  0  0  0
  6  7  2  0  0  0  0
  6  8  1  0  0  0  0
  9  8  1  1  0  0  0
  9 10  1  0  0  0  0
 10 11  1  0  0  0  0
  9 12  1  0  0  0  0
 12 13  2  0  0  0  0
 12 14  1  0  0  0  0
 15 14  1  1  0  0  0
 15 16  1  0  0  0  0
 16 17  2  0  0  0  0
 15 18  1  0  0  0  0
 18 19  1  0  0  0  0
 18 20  2  0  0  0  0
  2 21  1  0  0  0  0
 21 22  1  0  0  0  0
 21 23  2  0  0  0  0
M  END
> <DRUGBANK_ID>
DB03427

> <DRUG_GROUPS>
experimental

> <GENERIC_NAME>
Delta-(L-Alpha-Aminoadipoyl)-L-Cysteinyl-D-Vinylglycine

> <CHEMICAL_FORMULA>
C13H21N3O6S

> <MOLECULAR_WEIGHT>
347.387

> <EXACT_MASS>
347.115106109

> <IUPAC_NAME>
(2S)-2-amino-5-{[(1S)-1-{[(1R)-1-carboxyprop-2-en-1-yl]carbamoyl}-2-sulfanylethyl]carbamoyl}pentanoic acid

> <IUPAC_TRADITIONAL_NAME>
(2S)-2-amino-5-{[(1S)-1-{[(1R)-1-carboxyprop-2-en-1-yl]carbamoyl}-2-sulfanylethyl]carbamoyl}pentanoic acid

> <INCHI_IDENTIFIER>
InChI=1S/C13H21N3O6S/c1-2-8(13(21)22)16-11(18)9(6-23)15-10(17)5-3-4-7(14)12(19)20/h2,7-9,23H,1,3-6,14H2,(H,15,17)(H,16,18)(H,19,20)(H,21,22)/t7-,8+,9+/m0/s1

> <INCHI_KEY>
InChIKey=JJJCGQKXGIRXKN-DJLDLDEBSA-N

> <SMILES>
N[C@@H](CCCC(=O)N[C@H](CS)C(=O)N[C@H](C=C)C(O)=O)C(O)=O

> <JCHEM_ACCEPTOR_COUNT>
7

> <JCHEM_DONOR_COUNT>
6

> <JCHEM_ACIDIC_PKA>
1.94

> <JCHEM_BASIC_PKA>
9.15

> <JCHEM_PHYSIOLOGICAL_CHARGE>
-1

> <ALOGPS_LOGP>
-1.9

> <JCHEM_LOGP>
-3.5

> <ALOGPS_LOGS>
-2.6

> <JCHEM_POLARIZABILITY>
33.25

> <JCHEM_POLAR_SURFACE_AREA>
158.82

> <JCHEM_REFRACTIVITY>
82.62

> <JCHEM_ROTATABLE_BOND_COUNT>
11

> <ALOGPS_SOLUBILITY>
9.05e-01 g/l __ 

$$$$
