
  Mrv0541 02231217122D          

 10 10  0  0  1  0            999 V2000
   -0.8612    1.9393    0.0000 N   0  0  0  0  0  0  0  0  0  0  0  0
   -0.1467    2.3518    0.0000 C   0  0  2  0  0  0  0  0  0  0  0  0
    0.5678    1.9393    0.0000 C   0  0  0  0  0  0  0  0  0  0  0  0
    0.5678    1.1143    0.0000 C   0  0  0  0  0  0  0  0  0  0  0  0
    1.2352    0.6294    0.0000 C   0  0  0  0  0  0  0  0  0  0  0  0
    0.9803   -0.1553    0.0000 N   0  0  0  0  0  0  0  0  0  0  0  0
    0.1553   -0.1553    0.0000 C   0  0  0  0  0  0  0  0  0  0  0  0
   -0.0997    0.6294    0.0000 N   0  3  0  0  0  0  0  0  0  0  0  0
   -0.1467    3.1768    0.0000 C   0  0  0  0  0  0  0  0  0  0  0  0
   -0.8612    3.5893    0.0000 O   0  0  0  0  0  0  0  0  0  0  0  0
  2  1  1  1  0  0  0
  2  3  1  0  0  0  0
  3  4  1  0  0  0  0
  4  5  4  0  0  0  0
  5  6  4  0  0  0  0
  6  7  4  0  0  0  0
  7  8  4  0  0  0  0
  4  8  4  0  0  0  0
  2  9  1  0  0  0  0
  9 10  2  0  0  0  0
M  END
> <DRUGBANK_ID>
DB03811

> <DRUG_GROUPS>
experimental

> <GENERIC_NAME>
Histidinol

> <CHEMICAL_FORMULA>
C6H9N3O

> <MOLECULAR_WEIGHT>
139.1552

> <EXACT_MASS>
139.074561925

> <IUPAC_NAME>
5-[(2R)-2-amino-3-oxopropyl]imidazol-1-ium

> <IUPAC_TRADITIONAL_NAME>
histidinol

> <SMILES>
N[C@H](Cc1cnc[nH+]1)C=O

> <JCHEM_ACCEPTOR_COUNT>
3

> <JCHEM_DONOR_COUNT>
2

> <JCHEM_ACIDIC_PKA>
15.61

> <JCHEM_BASIC_PKA>
7.38

> <JCHEM_PHYSIOLOGICAL_CHARGE>
1

> <ALOGPS_LOGP>
-0.3

> <JCHEM_LOGP>
-1.3

> <ALOGPS_LOGS>
-0.68

> <JCHEM_POLARIZABILITY>
13.77

> <JCHEM_POLAR_SURFACE_AREA>
70.12

> <JCHEM_REFRACTIVITY>
36.82

> <JCHEM_ROTATABLE_BOND_COUNT>
3

> <ALOGPS_SOLUBILITY>
3.68e+01 g/l __ 

$$$$
