
  Mrv0541 02231217142D          

 38 41  0  0  1  0            999 V2000
    7.1447    8.2500    0.0000 C   0  0  0  0  0  0  0  0  0  0  0  0
    7.8592    8.6625    0.0000 C   0  0  0  0  0  0  0  0  0  0  0  0
    8.5737    8.2500    0.0000 C   0  0  0  0  0  0  0  0  0  0  0  0
    9.2881    8.6625    0.0000 C   0  0  0  0  0  0  0  0  0  0  0  0
   10.0026    8.2500    0.0000 N   0  0  0  0  0  0  0  0  0  0  0  0
   10.0026    7.4250    0.0000 C   0  0  0  0  0  0  0  0  0  0  0  0
   10.7171    8.6625    0.0000 C   0  0  0  0  0  0  0  0  0  0  0  0
   10.7171    9.4875    0.0000 O   0  0  0  0  0  0  0  0  0  0  0  0
   11.4315    8.2500    0.0000 C   0  0  0  0  0  0  0  0  0  0  0  0
   12.1460    8.6625    0.0000 C   0  0  0  0  0  0  0  0  0  0  0  0
   12.8605    8.2500    0.0000 C   0  0  0  0  0  0  0  0  0  0  0  0
   13.5749    8.6625    0.0000 C   0  0  0  0  0  0  0  0  0  0  0  0
   14.2894    8.2500    0.0000 C   0  0  0  0  0  0  0  0  0  0  0  0
   15.0039    8.6625    0.0000 C   0  0  0  0  0  0  0  0  0  0  0  0
   15.7184    8.2500    0.0000 C   0  0  0  0  0  0  0  0  0  0  0  0
   16.4328    8.6625    0.0000 C   0  0  0  0  0  0  0  0  0  0  0  0
   17.1473    8.2500    0.0000 C   0  0  0  0  0  0  0  0  0  0  0  0
   17.8618    8.6625    0.0000 C   0  0  0  0  0  0  0  0  0  0  0  0
   18.5762    8.2500    0.0000 C   0  0  2  0  0  0  0  0  0  0  0  0
   19.2907    8.6625    0.0000 C   0  0  0  0  0  0  0  0  0  0  0  0
   20.0052    8.2500    0.0000 C   0  0  0  0  0  0  0  0  0  0  0  0
   20.7197    8.6625    0.0000 C   0  0  0  0  0  0  0  0  0  0  0  0
   21.4341    8.2500    0.0000 C   0  0  0  0  0  0  0  0  0  0  0  0
   22.1486    8.6625    0.0000 O   0  0  0  0  0  0  0  0  0  0  0  0
   21.4341    7.4250    0.0000 C   0  0  0  0  0  0  0  0  0  0  0  0
   20.7197    7.0125    0.0000 C   0  0  0  0  0  0  0  0  0  0  0  0
   20.0052    7.4250    0.0000 C   0  0  0  0  0  0  0  0  0  0  0  0
   19.2907    7.0125    0.0000 C   0  0  1  0  0  0  0  0  0  0  0  0
   19.2907    6.1875    0.0000 C   0  0  0  0  0  0  0  0  0  0  0  0
   18.5762    5.7750    0.0000 C   0  0  0  0  0  0  0  0  0  0  0  0
   17.8618    6.1875    0.0000 C   0  0  2  0  0  0  0  0  0  0  0  0
   17.7755    5.3670    0.0000 C   0  0  0  0  0  0  0  0  0  0  0  0
   17.0772    5.9326    0.0000 C   0  0  2  0  0  0  0  0  0  0  0  0
   16.8222    5.1479    0.0000 O   0  0  0  0  0  0  0  0  0  0  0  0
   16.5922    6.6000    0.0000 C   0  0  0  0  0  0  0  0  0  0  0  0
   17.0772    7.2674    0.0000 C   0  0  0  0  0  0  0  0  0  0  0  0
   17.8618    7.0125    0.0000 C   0  0  1  0  0  0  0  0  0  0  0  0
   18.5762    7.4250    0.0000 C   0  0  2  0  0  0  0  0  0  0  0  0
  1  2  1  0  0  0  0
  2  3  1  0  0  0  0
  3  4  1  0  0  0  0
  4  5  1  0  0  0  0
  5  6  1  0  0  0  0
  5  7  1  0  0  0  0
  7  8  2  0  0  0  0
  7  9  1  0  0  0  0
  9 10  1  0  0  0  0
 10 11  1  0  0  0  0
 11 12  1  0  0  0  0
 12 13  1  0  0  0  0
 13 14  1  0  0  0  0
 14 15  1  0  0  0  0
 15 16  1  0  0  0  0
 16 17  1  0  0  0  0
 17 18  1  0  0  0  0
 19 18  1  6  0  0  0
 19 20  1  0  0  0  0
 20 21  1  0  0  0  0
 21 22  2  0  0  0  0
 22 23  1  0  0  0  0
 23 24  1  0  0  0  0
 23 25  2  0  0  0  0
 25 26  1  0  0  0  0
 26 27  2  0  0  0  0
 21 27  1  0  0  0  0
 27 28  1  0  0  0  0
 28 29  1  1  0  0  0
 29 30  1  0  0  0  0
 30 31  1  0  0  0  0
 31 32  1  1  0  0  0
 31 33  1  0  0  0  0
 33 34  1  6  0  0  0
 33 35  1  0  0  0  0
 35 36  1  0  0  0  0
 37 36  1  1  0  0  0
 31 37  1  0  0  0  0
 37 38  1  0  0  0  0
 19 38  1  0  0  0  0
 38 28  1  6  0  0  0
M  END
> <DRUGBANK_ID>
DB03860

> <DRUG_GROUPS>
experimental

> <GENERIC_NAME>
N-Butyl-11-[(7r,8r,9s,13s,14s,17s)-3,17-Dihydroxy-13-Methyl-7,8,9,11,12,13,14,15,16,17-Decahydro-6h-Cyclopenta[a]Phenanthren-7-Yl]-N-Methylundecanamide

> <CHEMICAL_FORMULA>
C34H55NO3

> <MOLECULAR_WEIGHT>
525.8054

> <EXACT_MASS>
525.418194631

> <IUPAC_NAME>
N-butyl-11-[(1S,9R,10R,11S,14R,15S)-5,14-dihydroxy-15-methyltetracyclo[8.7.0.0^{2,7}.0^{11,15}]heptadeca-2,4,6-trien-9-yl]-N-methylundecanamide

> <IUPAC_TRADITIONAL_NAME>
N-butyl-11-[(1S,9R,10R,11S,14R,15S)-5,14-dihydroxy-15-methyltetracyclo[8.7.0.0^{2,7}.0^{11,15}]heptadeca-2,4,6-trien-9-yl]-N-methylundecanamide

> <INCHI_IDENTIFIER>
InChI=1S/C34H55NO3/c1-4-5-22-35(3)32(38)15-13-11-9-7-6-8-10-12-14-25-23-26-24-27(36)16-17-28(26)29-20-21-34(2)30(33(25)29)18-19-31(34)37/h16-17,24-25,29-31,33,36-37H,4-15,18-23H2,1-3H3/t25-,29-,30+,31-,33-,34+/m1/s1

> <INCHI_KEY>
InChIKey=BVVFOLSZMQVDKV-ILEXQBCSSA-N

> <SMILES>
CCCCN(C)C(=O)CCCCCCCCCC[C@@H]1CC2=CC(O)=CC=C2[C@H]2CC[C@]3(C)[C@H](O)CC[C@H]3[C@H]12

> <JCHEM_ACCEPTOR_COUNT>
3

> <JCHEM_DONOR_COUNT>
2

> <JCHEM_ACIDIC_PKA>
10.32

> <JCHEM_BASIC_PKA>
0.29

> <JCHEM_PHYSIOLOGICAL_CHARGE>
0

> <ALOGPS_LOGP>
7.88

> <JCHEM_LOGP>
8.12

> <ALOGPS_LOGS>
-6.6

> <JCHEM_POLARIZABILITY>
66.31

> <JCHEM_POLAR_SURFACE_AREA>
60.77

> <JCHEM_REFRACTIVITY>
157.62

> <JCHEM_ROTATABLE_BOND_COUNT>
14

> <ALOGPS_SOLUBILITY>
1.43e-04 g/l __ 

$$$$
