
  Mrv0541 02231216522D          

 35 38  0  0  1  0            999 V2000
   -6.4907    3.4622    0.0000 N   0  0  0  0  0  0  0  0  0  0  0  0
   -6.4907    2.6372    0.0000 C   0  0  1  0  0  0  0  0  0  0  0  0
   -7.2052    2.2247    0.0000 C   0  0  0  0  0  0  0  0  0  0  0  0
   -7.9196    2.6372    0.0000 C   0  0  0  0  0  0  0  0  0  0  0  0
   -8.6341    2.2247    0.0000 C   0  0  0  0  0  0  0  0  0  0  0  0
   -9.3486    2.6372    0.0000 C   0  0  0  0  0  0  0  0  0  0  0  0
   -9.3486    3.4622    0.0000 C   0  0  0  0  0  0  0  0  0  0  0  0
  -10.0630    3.8747    0.0000 O   0  0  0  0  0  0  0  0  0  0  0  0
   -8.6341    3.8747    0.0000 C   0  0  0  0  0  0  0  0  0  0  0  0
   -7.9196    3.4622    0.0000 C   0  0  0  0  0  0  0  0  0  0  0  0
   -5.7762    2.2247    0.0000 C   0  0  0  0  0  0  0  0  0  0  0  0
   -5.7762    1.3997    0.0000 O   0  0  0  0  0  0  0  0  0  0  0  0
   -5.0617    2.6372    0.0000 N   0  0  0  0  0  0  0  0  0  0  0  0
   -4.3473    2.2247    0.0000 S   0  0  0  0  0  0  0  0  0  0  0  0
   -4.7598    1.5103    0.0000 O   0  0  0  0  0  0  0  0  0  0  0  0
   -3.9348    2.9392    0.0000 O   0  0  0  0  0  0  0  0  0  0  0  0
   -3.6328    1.8122    0.0000 O   0  0  0  0  0  0  0  0  0  0  0  0
   -2.9183    2.2247    0.0000 C   0  0  0  0  0  0  0  0  0  0  0  0
   -2.2039    1.8122    0.0000 C   0  0  2  0  0  0  0  0  0  0  0  0
   -1.4502    2.1478    0.0000 O   0  0  0  0  0  0  0  0  0  0  0  0
   -0.8981    1.5347    0.0000 C   0  0  2  0  0  0  0  0  0  0  0  0
   -1.3106    0.8202    0.0000 C   0  0  2  0  0  0  0  0  0  0  0  0
   -0.9751    0.0665    0.0000 O   0  0  0  0  0  0  0  0  0  0  0  0
   -2.1176    0.9917    0.0000 C   0  0  1  0  0  0  0  0  0  0  0  0
   -2.7307    0.4397    0.0000 O   0  0  0  0  0  0  0  0  0  0  0  0
   -0.0777    1.6209    0.0000 N   0  0  0  0  0  0  0  0  0  0  0  0
    0.4744    1.0078    0.0000 C   0  0  0  0  0  0  0  0  0  0  0  0
    1.2280    1.3434    0.0000 N   0  0  0  0  0  0  0  0  0  0  0  0
    1.1418    2.1639    0.0000 C   0  0  0  0  0  0  0  0  0  0  0  0
    0.3348    2.3354    0.0000 C   0  0  0  0  0  0  0  0  0  0  0  0
    0.0799    3.1200    0.0000 N   0  0  0  0  0  0  0  0  0  0  0  0
    0.6319    3.7331    0.0000 C   0  0  0  0  0  0  0  0  0  0  0  0
    1.4389    3.5616    0.0000 N   0  0  0  0  0  0  0  0  0  0  0  0
    1.6938    2.7770    0.0000 C   0  0  0  0  0  0  0  0  0  0  0  0
    2.5008    2.6054    0.0000 N   0  0  0  0  0  0  0  0  0  0  0  0
  2  1  1  6  0  0  0
  2  3  1  0  0  0  0
  3  4  1  0  0  0  0
  4  5  2  0  0  0  0
  5  6  1  0  0  0  0
  6  7  2  0  0  0  0
  7  8  1  0  0  0  0
  7  9  1  0  0  0  0
  9 10  2  0  0  0  0
  4 10  1  0  0  0  0
  2 11  1  0  0  0  0
 11 12  2  0  0  0  0
 11 13  1  0  0  0  0
 13 14  1  0  0  0  0
 14 15  2  0  0  0  0
 14 16  2  0  0  0  0
 14 17  1  0  0  0  0
 17 18  1  0  0  0  0
 19 18  1  6  0  0  0
 19 20  1  0  0  0  0
 20 21  1  0  0  0  0
 21 22  1  0  0  0  0
 22 23  1  6  0  0  0
 22 24  1  0  0  0  0
 19 24  1  0  0  0  0
 24 25  1  1  0  0  0
 21 26  1  1  0  0  0
 26 27  1  0  0  0  0
 27 28  2  0  0  0  0
 28 29  1  0  0  0  0
 29 30  2  0  0  0  0
 26 30  1  0  0  0  0
 30 31  1  0  0  0  0
 31 32  2  0  0  0  0
 32 33  1  0  0  0  0
 33 34  2  0  0  0  0
 29 34  1  0  0  0  0
 34 35  1  0  0  0  0
M  END
> <DRUGBANK_ID>
DB03325

> <DRUG_GROUPS>
experimental

> <GENERIC_NAME>
Tyrosyladenylate

> <CHEMICAL_FORMULA>
C19H23N7O8S

> <MOLECULAR_WEIGHT>
509.493

> <EXACT_MASS>
509.132881437

> <IUPAC_NAME>
(2S)-2-amino-1-[({[(2S,3R,4R,5R)-5-(6-amino-9H-purin-9-yl)-3,4-dihydroxyoxolan-2-yl]methoxy}sulfonyl)amino]-3-(4-hydroxyphenyl)propan-1-one

> <IUPAC_TRADITIONAL_NAME>
(2S)-2-amino-1-({[(2S,3R,4R,5R)-5-(6-aminopurin-9-yl)-3,4-dihydroxyoxolan-2-yl]methoxysulfonyl}amino)-3-(4-hydroxyphenyl)propan-1-one

> <INCHI_IDENTIFIER>
InChI=1S/C19H23N7O8S/c20-11(5-9-1-3-10(27)4-2-9)18(30)25-35(31,32)33-6-12-14(28)15(29)19(34-12)26-8-24-13-16(21)22-7-23-17(13)26/h1-4,7-8,11-12,14-15,19,27-29H,5-6,20H2,(H,25,30)(H2,21,22,23)/t11-,12-,14-,15+,19+/m0/s1

> <INCHI_KEY>
InChIKey=MJZAZMKENKZBAJ-NEYKFGMSSA-N

> <SMILES>
N[C@@H](CC1=CC=C(O)C=C1)C(=O)NS(=O)(=O)OC[C@@H]1O[C@H]([C@H](O)[C@H]1O)N1C=NC2=C1N=CN=C2N

> <JCHEM_ACCEPTOR_COUNT>
13

> <JCHEM_DONOR_COUNT>
6

> <JCHEM_ACIDIC_PKA>
2.74

> <JCHEM_BASIC_PKA>
6.42

> <JCHEM_PHYSIOLOGICAL_CHARGE>
-1

> <ALOGPS_LOGP>
-0.71

> <JCHEM_LOGP>
-2.6

> <ALOGPS_LOGS>
-2.4

> <JCHEM_POLARIZABILITY>
48.24

> <JCHEM_POLAR_SURFACE_AREA>
238.03

> <JCHEM_REFRACTIVITY>
118.74

> <JCHEM_ROTATABLE_BOND_COUNT>
7

> <ALOGPS_SOLUBILITY>
2.15e+00 g/l __ 

$$$$
