
  Mrv0541 02231217172D          

  9  9  0  0  1  0            999 V2000
    2.0198    0.8843    0.0000 C   0  0  0  0  0  0  0  0  0  0  0  0
    1.2352    0.6294    0.0000 C   0  0  1  0  0  0  0  0  0  0  0  0
    0.9803   -0.1553    0.0000 C   0  0  0  0  0  0  0  0  0  0  0  0
    0.1553   -0.1553    0.0000 C   0  0  0  0  0  0  0  0  0  0  0  0
   -0.0997    0.6294    0.0000 N   0  0  0  0  0  0  0  0  0  0  0  0
    0.5678    1.1143    0.0000 C   0  0  2  0  0  0  0  0  0  0  0  0
    0.5678    1.9393    0.0000 C   0  0  0  0  0  0  0  0  0  0  0  0
   -0.1467    2.3518    0.0000 O   0  0  0  0  0  0  0  0  0  0  0  0
    1.2822    2.3518    0.0000 O   0  0  0  0  0  0  0  0  0  0  0  0
  2  1  1  1  0  0  0
  2  3  1  0  0  0  0
  3  4  2  0  0  0  0
  4  5  1  0  0  0  0
  5  6  1  0  0  0  0
  2  6  1  0  0  0  0
  6  7  1  6  0  0  0
  7  8  1  0  0  0  0
  7  9  2  0  0  0  0
M  END
> <DRUGBANK_ID>
DB03930

> <DRUG_GROUPS>
experimental

> <GENERIC_NAME>
4-Methyl-Pyrroline-5-Carboxylic Acid

> <CHEMICAL_FORMULA>
C6H9NO2

> <MOLECULAR_WEIGHT>
127.1412

> <EXACT_MASS>
127.063328537

> <IUPAC_NAME>
(2S,3S)-3-methyl-2,3-dihydro-1H-pyrrole-2-carboxylic acid

> <IUPAC_TRADITIONAL_NAME>
(2S,3S)-3-methyl-2,3-dihydro-1H-pyrrole-2-carboxylic acid

> <INCHI_IDENTIFIER>
InChI=1S/C6H9NO2/c1-4-2-3-7-5(4)6(8)9/h2-5,7H,1H3,(H,8,9)/t4-,5-/m0/s1

> <INCHI_KEY>
InChIKey=ZVJPMCWYCLEWPG-WHFBIAKZSA-N

> <SMILES>
C[C@H]1C=CN[C@@H]1C(O)=O

> <JCHEM_ACCEPTOR_COUNT>
3

> <JCHEM_DONOR_COUNT>
2

> <JCHEM_ACIDIC_PKA>
1.8

> <JCHEM_BASIC_PKA>
10.33

> <JCHEM_PHYSIOLOGICAL_CHARGE>
0

> <ALOGPS_LOGP>
-0.09

> <JCHEM_LOGP>
-2.2

> <ALOGPS_LOGS>
0.02

> <JCHEM_POLARIZABILITY>
12.64

> <JCHEM_POLAR_SURFACE_AREA>
49.33

> <JCHEM_REFRACTIVITY>
32.63

> <JCHEM_ROTATABLE_BOND_COUNT>
1

> <ALOGPS_SOLUBILITY>
1.32e+02 g/l __ 

$$$$
