
  Mrv0541 02231216552D          

 43 45  0  0  1  0            999 V2000
    4.4681   -8.4751    0.0000 C   0  0  0  0  0  0  0  0  0  0  0  0
    5.1448   -8.9471    0.0000 C   0  0  0  0  0  0  0  0  0  0  0  0
    5.8919   -8.5970    0.0000 C   0  0  0  0  0  0  0  0  0  0  0  0
    5.0744   -9.7691    0.0000 C   0  0  0  0  0  0  0  0  0  0  0  0
    4.3274  -10.1191    0.0000 C   0  0  1  0  0  0  0  0  0  0  0  0
    4.2570  -10.9411    0.0000 N   0  0  0  0  0  0  0  0  0  0  0  0
    4.9337  -11.4131    0.0000 C   0  0  0  0  0  0  0  0  0  0  0  0
    5.6808  -11.0630    0.0000 O   0  0  0  0  0  0  0  0  0  0  0  0
    4.8633  -12.2350    0.0000 O   0  0  0  0  0  0  0  0  0  0  0  0
    5.5400  -12.7070    0.0000 C   0  0  0  0  0  0  0  0  0  0  0  0
    5.4696  -13.5290    0.0000 C   0  0  0  0  0  0  0  0  0  0  0  0
    6.1463  -14.0009    0.0000 C   0  0  0  0  0  0  0  0  0  0  0  0
    6.0759  -14.8229    0.0000 C   0  0  0  0  0  0  0  0  0  0  0  0
    5.3289  -15.1730    0.0000 C   0  0  0  0  0  0  0  0  0  0  0  0
    4.6522  -14.7010    0.0000 C   0  0  0  0  0  0  0  0  0  0  0  0
    4.7226  -13.8790    0.0000 C   0  0  0  0  0  0  0  0  0  0  0  0
    3.6507   -9.6472    0.0000 C   0  0  0  0  0  0  0  0  0  0  0  0
    2.9037   -9.9972    0.0000 O   0  0  0  0  0  0  0  0  0  0  0  0
    3.7211   -8.8252    0.0000 N   0  0  0  0  0  0  0  0  0  0  0  0
    3.0444   -8.3532    0.0000 C   0  0  2  0  0  0  0  0  0  0  0  0
    3.0285   -7.5284    0.0000 C   0  0  0  0  0  0  0  0  0  0  0  0
    2.2391   -7.2887    0.0000 N   0  0  0  0  0  0  0  0  0  0  0  0
    1.7671   -7.9653    0.0000 C   0  0  0  0  0  0  0  0  0  0  0  0
    2.2649   -8.6233    0.0000 C   0  0  0  0  0  0  0  0  0  0  0  0
    2.0251   -9.4127    0.0000 O   0  0  0  0  0  0  0  0  0  0  0  0
    1.9690   -6.5091    0.0000 C   0  0  0  0  0  0  0  0  0  0  0  0
    1.1589   -6.3532    0.0000 O   0  0  0  0  0  0  0  0  0  0  0  0
    2.5091   -5.8855    0.0000 C   0  0  1  0  0  0  0  0  0  0  0  0
    2.2391   -5.1059    0.0000 C   0  0  0  0  0  0  0  0  0  0  0  0
    1.4289   -4.9500    0.0000 C   0  0  0  0  0  0  0  0  0  0  0  0
    0.8889   -5.5736    0.0000 C   0  0  0  0  0  0  0  0  0  0  0  0
    1.1589   -4.1704    0.0000 C   0  0  0  0  0  0  0  0  0  0  0  0
    3.3193   -6.0414    0.0000 N   0  0  0  0  0  0  0  0  0  0  0  0
    3.8593   -5.4177    0.0000 C   0  0  0  0  0  0  0  0  0  0  0  0
    3.5893   -4.6382    0.0000 O   0  0  0  0  0  0  0  0  0  0  0  0
    4.6695   -5.5736    0.0000 O   0  0  0  0  0  0  0  0  0  0  0  0
    5.2096   -4.9500    0.0000 C   0  0  0  0  0  0  0  0  0  0  0  0
    6.0197   -5.1059    0.0000 C   0  0  0  0  0  0  0  0  0  0  0  0
    6.5598   -4.4823    0.0000 C   0  0  0  0  0  0  0  0  0  0  0  0
    7.3699   -4.6382    0.0000 C   0  0  0  0  0  0  0  0  0  0  0  0
    7.6400   -5.4177    0.0000 C   0  0  0  0  0  0  0  0  0  0  0  0
    7.0999   -6.0414    0.0000 C   0  0  0  0  0  0  0  0  0  0  0  0
    6.2897   -5.8855    0.0000 C   0  0  0  0  0  0  0  0  0  0  0  0
  1  2  1  0  0  0  0
  2  3  1  0  0  0  0
  2  4  1  0  0  0  0
  4  5  1  0  0  0  0
  5  6  1  1  0  0  0
  6  7  1  0  0  0  0
  7  8  2  0  0  0  0
  7  9  1  0  0  0  0
  9 10  1  0  0  0  0
 10 11  1  0  0  0  0
 11 12  2  0  0  0  0
 12 13  1  0  0  0  0
 13 14  2  0  0  0  0
 14 15  1  0  0  0  0
 15 16  2  0  0  0  0
 11 16  1  0  0  0  0
  5 17  1  0  0  0  0
 17 18  2  0  0  0  0
 17 19  1  0  0  0  0
 20 19  1  1  0  0  0
 20 21  1  0  0  0  0
 21 22  1  0  0  0  0
 22 23  1  0  0  0  0
 23 24  1  0  0  0  0
 20 24  1  0  0  0  0
 24 25  2  0  0  0  0
 22 26  1  0  0  0  0
 26 27  2  0  0  0  0
 26 28  1  0  0  0  0
 28 29  1  0  0  0  0
 29 30  1  0  0  0  0
 30 31  1  0  0  0  0
 30 32  1  0  0  0  0
 28 33  1  1  0  0  0
 33 34  1  0  0  0  0
 34 35  2  0  0  0  0
 34 36  1  0  0  0  0
 36 37  1  0  0  0  0
 37 38  1  0  0  0  0
 38 39  2  0  0  0  0
 39 40  1  0  0  0  0
 40 41  2  0  0  0  0
 41 42  1  0  0  0  0
 42 43  2  0  0  0  0
 38 43  1  0  0  0  0
M  END
> <DRUGBANK_ID>
DB03405

> <DRUG_GROUPS>
experimental

> <GENERIC_NAME>
1-[N[(Phenylmethoxy)Carbonyl]-L-Leucyl-4-[[N/N-[(Phenylmethoxy)Carbonyl]-/Nl-Leucyl]Amino]-3-Pyrrolidinone/N

> <CHEMICAL_FORMULA>
C32H42N4O7

> <MOLECULAR_WEIGHT>
594.6985

> <EXACT_MASS>
594.305349718

> <IUPAC_NAME>
benzyl N-[(1R)-1-{[(3R)-1-[(2R)-2-{[(benzyloxy)carbonyl]amino}-4-methylpentanoyl]-4-oxopyrrolidin-3-yl]carbamoyl}-3-methylbutyl]carbamate

> <IUPAC_TRADITIONAL_NAME>
benzyl N-[(1R)-1-{[(3R)-1-[(2R)-2-{[(benzyloxy)carbonyl]amino}-4-methylpentanoyl]-4-oxopyrrolidin-3-yl]carbamoyl}-3-methylbutyl]carbamate

> <INCHI_IDENTIFIER>
InChI=1S/C32H42N4O7/c1-21(2)15-25(34-31(40)42-19-23-11-7-5-8-12-23)29(38)33-27-17-36(18-28(27)37)30(39)26(16-22(3)4)35-32(41)43-20-24-13-9-6-10-14-24/h5-14,21-22,25-27H,15-20H2,1-4H3,(H,33,38)(H,34,40)(H,35,41)/t25-,26-,27-/m1/s1

> <INCHI_KEY>
InChIKey=GXENQLUSOCKXDN-ZONZVBGPSA-N

> <SMILES>
CC(C)C[C@@H](NC(=O)OCC1=CC=CC=C1)C(=O)N[C@@H]1CN(CC1=O)C(=O)[C@@H](CC(C)C)NC(=O)OCC1=CC=CC=C1

> <JCHEM_ACCEPTOR_COUNT>
5

> <JCHEM_DONOR_COUNT>
3

> <JCHEM_ACIDIC_PKA>
12.3

> <JCHEM_BASIC_PKA>
-3.4

> <JCHEM_PHYSIOLOGICAL_CHARGE>
0

> <ALOGPS_LOGP>
2.89

> <JCHEM_LOGP>
4.28

> <ALOGPS_LOGS>
-5.1

> <JCHEM_POLARIZABILITY>
64.11

> <JCHEM_POLAR_SURFACE_AREA>
143.14

> <JCHEM_REFRACTIVITY>
158.89

> <JCHEM_ROTATABLE_BOND_COUNT>
15

> <ALOGPS_SOLUBILITY>
4.50e-03 g/l __ 

$$$$
