
  Mrv0541 02231216392D          

 59 65  0  0  1  0            999 V2000
    3.4966   -5.2906    0.0000 C   0  0  0  0  0  0  0  0  0  0  0  0
    4.2111   -4.8781    0.0000 O   0  0  0  0  0  0  0  0  0  0  0  0
    4.9256   -5.2906    0.0000 C   0  0  0  0  0  0  0  0  0  0  0  0
    5.6400   -4.8781    0.0000 C   0  0  0  0  0  0  0  0  0  0  0  0
    6.3545   -5.2906    0.0000 C   0  0  0  0  0  0  0  0  0  0  0  0
    6.3545   -6.1156    0.0000 C   0  0  0  0  0  0  0  0  0  0  0  0
    5.6400   -6.5281    0.0000 C   0  0  0  0  0  0  0  0  0  0  0  0
    5.6400   -7.3531    0.0000 O   0  0  0  0  0  0  0  0  0  0  0  0
    4.9256   -7.7656    0.0000 C   0  0  0  0  0  0  0  0  0  0  0  0
    4.9256   -6.1156    0.0000 C   0  0  0  0  0  0  0  0  0  0  0  0
    4.2111   -6.5281    0.0000 O   0  0  0  0  0  0  0  0  0  0  0  0
    4.2111   -7.3531    0.0000 C   0  0  0  0  0  0  0  0  0  0  0  0
    3.4966   -7.7656    0.0000 C   0  0  0  0  0  0  0  0  0  0  0  0
    3.4966   -8.5906    0.0000 C   0  0  0  0  0  0  0  0  0  0  0  0
    2.7822   -9.0031    0.0000 C   0  0  0  0  0  0  0  0  0  0  0  0
    2.0677   -8.5906    0.0000 C   0  0  0  0  0  0  0  0  0  0  0  0
    2.0677   -7.7656    0.0000 C   0  0  0  0  0  0  0  0  0  0  0  0
    2.7822   -7.3531    0.0000 C   0  0  0  0  0  0  0  0  0  0  0  0
    7.0690   -4.8781    0.0000 C   0  0  0  0  0  0  0  0  0  0  0  0
    7.0690   -4.0531    0.0000 O   0  0  0  0  0  0  0  0  0  0  0  0
    7.7834   -5.2906    0.0000 N   0  0  0  0  0  0  0  0  0  0  0  0
    8.4979   -4.8781    0.0000 C   0  0  1  0  0  0  0  0  0  0  0  0
    8.4979   -4.0531    0.0000 C   0  0  0  0  0  0  0  0  0  0  0  0
    9.2124   -3.6406    0.0000 C   0  0  0  0  0  0  0  0  0  0  0  0
    9.2124   -2.8156    0.0000 C   0  0  0  0  0  0  0  0  0  0  0  0
    9.9269   -2.4031    0.0000 C   0  0  0  0  0  0  0  0  0  0  0  0
   10.6413   -2.8156    0.0000 C   0  0  0  0  0  0  0  0  0  0  0  0
   10.6413   -3.6406    0.0000 C   0  0  0  0  0  0  0  0  0  0  0  0
    9.9269   -4.0531    0.0000 C   0  0  0  0  0  0  0  0  0  0  0  0
    9.2124   -5.2906    0.0000 C   0  0  1  0  0  0  0  0  0  0  0  0
    9.2124   -6.1156    0.0000 O   0  0  0  0  0  0  0  0  0  0  0  0
    9.9269   -4.8781    0.0000 C   0  0  0  0  0  0  0  0  0  0  0  0
   10.6413   -5.2906    0.0000 N   0  0  0  0  0  0  0  0  0  0  0  0
   10.6413   -6.1156    0.0000 C   0  0  0  0  0  0  0  0  0  0  0  0
   11.3558   -6.5281    0.0000 C   0  0  0  0  0  0  0  0  0  0  0  0
   11.3558   -7.3531    0.0000 C   0  0  1  0  0  0  0  0  0  0  0  0
   12.0703   -7.7656    0.0000 C   0  0  0  0  0  0  0  0  0  0  0  0
   12.0703   -8.5906    0.0000 C   0  0  0  0  0  0  0  0  0  0  0  0
   11.3558   -9.0031    0.0000 C   0  0  1  0  0  0  0  0  0  0  0  0
   11.1843   -9.8100    0.0000 O   0  0  0  0  0  0  0  0  0  0  0  0
   10.3638   -9.8963    0.0000 C   0  0  0  0  0  0  0  0  0  0  0  0
   10.0282   -9.1426    0.0000 O   0  0  0  0  0  0  0  0  0  0  0  0
   10.6413   -8.5906    0.0000 C   0  0  1  0  0  0  0  0  0  0  0  0
   10.6413   -7.7656    0.0000 C   0  0  0  0  0  0  0  0  0  0  0  0
   11.3558   -4.8781    0.0000 C   0  0  0  0  0  0  0  0  0  0  0  0
   11.3558   -4.0531    0.0000 O   0  0  0  0  0  0  0  0  0  0  0  0
   12.0703   -5.2906    0.0000 C   0  0  0  0  0  0  0  0  0  0  0  0
   12.7847   -4.8781    0.0000 C   0  0  0  0  0  0  0  0  0  0  0  0
   13.4992   -5.2906    0.0000 N   0  0  0  0  0  0  0  0  0  0  0  0
   14.2529   -4.9550    0.0000 C   0  0  0  0  0  0  0  0  0  0  0  0
   14.4244   -4.1480    0.0000 O   0  0  0  0  0  0  0  0  0  0  0  0
   14.8049   -5.5681    0.0000 C   0  0  0  0  0  0  0  0  0  0  0  0
   15.6299   -5.5681    0.0000 C   0  0  0  0  0  0  0  0  0  0  0  0
   16.0424   -6.2826    0.0000 C   0  0  0  0  0  0  0  0  0  0  0  0
   15.6299   -6.9970    0.0000 C   0  0  0  0  0  0  0  0  0  0  0  0
   14.8049   -6.9970    0.0000 C   0  0  0  0  0  0  0  0  0  0  0  0
   14.3924   -6.2826    0.0000 C   0  0  0  0  0  0  0  0  0  0  0  0
   13.5855   -6.1110    0.0000 C   0  0  0  0  0  0  0  0  0  0  0  0
   12.9724   -6.6631    0.0000 O   0  0  0  0  0  0  0  0  0  0  0  0
  1  2  1  0  0  0  0
  2  3  1  0  0  0  0
  3  4  2  0  0  0  0
  4  5  1  0  0  0  0
  5  6  2  0  0  0  0
  6  7  1  0  0  0  0
  7  8  1  0  0  0  0
  8  9  1  0  0  0  0
  7 10  2  0  0  0  0
  3 10  1  0  0  0  0
 10 11  1  0  0  0  0
 11 12  1  0  0  0  0
 12 13  1  0  0  0  0
 13 14  2  0  0  0  0
 14 15  1  0  0  0  0
 15 16  2  0  0  0  0
 16 17  1  0  0  0  0
 17 18  2  0  0  0  0
 13 18  1  0  0  0  0
  5 19  1  0  0  0  0
 19 20  2  0  0  0  0
 19 21  1  0  0  0  0
 22 21  1  1  0  0  0
 22 23  1  0  0  0  0
 23 24  1  0  0  0  0
 24 25  2  0  0  0  0
 25 26  1  0  0  0  0
 26 27  2  0  0  0  0
 27 28  1  0  0  0  0
 28 29  2  0  0  0  0
 24 29  1  0  0  0  0
 22 30  1  0  0  0  0
 30 31  1  6  0  0  0
 30 32  1  0  0  0  0
 32 33  1  0  0  0  0
 33 34  1  0  0  0  0
 34 35  1  0  0  0  0
 36 35  1  1  0  0  0
 36 37  1  0  0  0  0
 37 38  1  0  0  0  0
 38 39  1  0  0  0  0
 39 40  1  1  0  0  0
 40 41  1  0  0  0  0
 41 42  1  0  0  0  0
 42 43  1  0  0  0  0
 39 43  1  0  0  0  0
 43 44  1  1  0  0  0
 36 44  1  0  0  0  0
 33 45  1  0  0  0  0
 45 46  2  0  0  0  0
 45 47  1  0  0  0  0
 47 48  1  0  0  0  0
 48 49  1  0  0  0  0
 49 50  1  0  0  0  0
 50 51  2  0  0  0  0
 50 52  1  0  0  0  0
 52 53  2  0  0  0  0
 53 54  1  0  0  0  0
 54 55  2  0  0  0  0
 55 56  1  0  0  0  0
 56 57  2  0  0  0  0
 52 57  1  0  0  0  0
 57 58  1  0  0  0  0
 49 58  1  0  0  0  0
 58 59  2  0  0  0  0
M  END
> <DRUGBANK_ID>
DB03063

> <DRUG_GROUPS>
experimental

> <GENERIC_NAME>
N-(1-Benzyl-3-{[3-(1,3-Dioxo-1,3-Dihydro-Isoindol-2-Yl)-Propionyl]-[2-(Hexahydro-Benzo[1,3]Dioxol-5-Yl)-Ethyl]-Amino}-2-Hydroxy-Propyl)-4-Benzyloxy-3,5-Dimethoxy-Benzamide

> <CHEMICAL_FORMULA>
C46H51N3O10

> <MOLECULAR_WEIGHT>
805.9112

> <EXACT_MASS>
805.357444867

> <IUPAC_NAME>
N-{2-[(3aS,5R,7aR)-hexahydro-2H-1,3-benzodioxol-5-yl]ethyl}-N-[(2S,3S)-3-{[4-(benzyloxy)-3,5-dimethoxyphenyl]formamido}-2-hydroxy-4-phenylbutyl]-3-(1,3-dioxo-2,3-dihydro-1H-isoindol-2-yl)propanamide

> <IUPAC_TRADITIONAL_NAME>
N-{2-[(3aS,5R,7aR)-hexahydro-2H-1,3-benzodioxol-5-yl]ethyl}-N-[(2S,3S)-3-{[4-(benzyloxy)-3,5-dimethoxyphenyl]formamido}-2-hydroxy-4-phenylbutyl]-3-(1,3-dioxoisoindol-2-yl)propanamide

> <INCHI_IDENTIFIER>
InChI=1S/C46H51N3O10/c1-55-40-25-33(26-41(56-2)43(40)57-28-32-13-7-4-8-14-32)44(52)47-36(23-30-11-5-3-6-12-30)37(50)27-48(21-19-31-17-18-38-39(24-31)59-29-58-38)42(51)20-22-49-45(53)34-15-9-10-16-35(34)46(49)54/h3-16,25-26,31,36-39,50H,17-24,27-29H2,1-2H3,(H,47,52)/t31-,36+,37+,38-,39+/m1/s1

> <INCHI_KEY>
InChIKey=PJQGNNQTZMYXOB-SCOKUSKESA-N

> <SMILES>
COC1=CC(=CC(OC)=C1OCC1=CC=CC=C1)C(=O)N[C@@H](CC1=CC=CC=C1)[C@@H](O)CN(CC[C@H]1CC[C@H]2OCO[C@H]2C1)C(=O)CCN1C(=O)C2=CC=CC=C2C1=O

> <JCHEM_ACCEPTOR_COUNT>
10

> <JCHEM_DONOR_COUNT>
2

> <JCHEM_ACIDIC_PKA>
13.98

> <JCHEM_BASIC_PKA>
-0.27

> <JCHEM_PHYSIOLOGICAL_CHARGE>
0

> <ALOGPS_LOGP>
4.85

> <JCHEM_LOGP>
5.09

> <ALOGPS_LOGS>
-5.9

> <JCHEM_POLARIZABILITY>
86.1

> <JCHEM_POLAR_SURFACE_AREA>
153.17

> <JCHEM_REFRACTIVITY>
219.47

> <JCHEM_ROTATABLE_BOND_COUNT>
18

> <ALOGPS_SOLUBILITY>
9.88e-04 g/l __ 

$$$$
