
  Mrv0541 02231216502D          

 11 11  0  0  1  0            999 V2000
    2.1434    1.2375    0.0000 O   0  0  0  0  0  0  0  0  0  0  0  0
    1.4289    0.8250    0.0000 C   0  0  2  0  0  0  0  0  0  0  0  0
    1.4289    0.0000    0.0000 C   0  0  0  0  0  0  0  0  0  0  0  0
    0.7145   -0.4125    0.0000 O   0  0  0  0  0  0  0  0  0  0  0  0
    0.0000    0.0000    0.0000 C   0  0  0  0  0  0  0  0  0  0  0  0
    0.0000    0.8250    0.0000 C   0  0  0  0  0  0  0  0  0  0  0  0
    0.7145    1.2375    0.0000 C   0  0  1  0  0  0  0  0  0  0  0  0
    0.7145    2.0625    0.0000 O   0  0  0  0  0  0  0  0  0  0  0  0
   -0.7145   -0.4125    0.0000 C   0  0  0  0  0  0  0  0  0  0  0  0
   -0.7145   -1.2375    0.0000 O   0  0  0  0  0  0  0  0  0  0  0  0
   -1.4289    0.0000    0.0000 O   0  0  0  0  0  0  0  0  0  0  0  0
  2  1  1  6  0  0  0
  2  3  1  0  0  0  0
  3  4  1  0  0  0  0
  4  5  1  0  0  0  0
  5  6  2  0  0  0  0
  6  7  1  0  0  0  0
  2  7  1  0  0  0  0
  7  8  1  1  0  0  0
  5  9  1  0  0  0  0
  9 10  1  0  0  0  0
  9 11  2  0  0  0  0
M  END
> <DRUGBANK_ID>
DB03284

> <DRUG_GROUPS>
experimental

> <GENERIC_NAME>
2,6-Anhydro-3-Deoxy-D-Erythro-Hex-2-Enonic Acid

> <CHEMICAL_FORMULA>
C6H8O5

> <MOLECULAR_WEIGHT>
160.1247

> <EXACT_MASS>
160.037173366

> <IUPAC_NAME>
(3R,4R)-3,4-dihydroxy-3,4-dihydro-2H-pyran-6-carboxylic acid

> <IUPAC_TRADITIONAL_NAME>
(4R,5R)-4,5-dihydroxy-5,6-dihydro-4H-pyran-2-carboxylic acid

> <INCHI_IDENTIFIER>
InChI=1S/C6H8O5/c7-3-1-5(6(9)10)11-2-4(3)8/h1,3-4,7-8H,2H2,(H,9,10)/t3-,4-/m1/s1

> <INCHI_KEY>
InChIKey=GQECVRZDTXJRPX-QWWZWVQMSA-N

> <SMILES>
O[C@@H]1COC(=C[C@H]1O)C(O)=O

> <JCHEM_ACCEPTOR_COUNT>
5

> <JCHEM_DONOR_COUNT>
3

> <JCHEM_ACIDIC_PKA>
3.45

> <JCHEM_BASIC_PKA>
-3.4

> <JCHEM_PHYSIOLOGICAL_CHARGE>
-1

> <ALOGPS_LOGP>
-1.1

> <JCHEM_LOGP>
-1.5

> <ALOGPS_LOGS>
0.23

> <JCHEM_POLARIZABILITY>
14.02

> <JCHEM_POLAR_SURFACE_AREA>
86.99

> <JCHEM_REFRACTIVITY>
35.12

> <JCHEM_ROTATABLE_BOND_COUNT>
1

> <ALOGPS_SOLUBILITY>
2.74e+02 g/l __ 

$$$$
