
  Mrv0541 02231217042D          

 64 69  0  0  1  0            999 V2000
    5.0013  -10.3125    0.0000 C   0  0  0  0  0  0  0  0  0  0  0  0
    5.0013  -11.1375    0.0000 C   0  0  2  0  0  0  0  0  0  0  0  0
    5.7158  -11.5500    0.0000 O   0  0  0  0  0  0  0  0  0  0  0  0
    5.7158  -12.3750    0.0000 C   0  0  2  0  0  0  0  0  0  0  0  0
    6.4302  -12.7875    0.0000 O   0  0  0  0  0  0  0  0  0  0  0  0
    7.1447  -12.3750    0.0000 C   0  0  1  0  0  0  0  0  0  0  0  0
    7.1447  -11.5500    0.0000 C   0  0  1  0  0  0  0  0  0  0  0  0
    6.4302  -11.1375    0.0000 C   0  0  0  0  0  0  0  0  0  0  0  0
    6.4302  -10.3125    0.0000 O   0  0  0  0  0  0  0  0  0  0  0  0
    7.8592  -11.1375    0.0000 O   0  0  0  0  0  0  0  0  0  0  0  0
    8.5737  -11.5500    0.0000 C   0  0  2  0  0  0  0  0  0  0  0  0
    9.2881  -11.1375    0.0000 O   0  0  0  0  0  0  0  0  0  0  0  0
    9.2881  -10.3125    0.0000 C   0  0  2  0  0  0  0  0  0  0  0  0
    8.5737   -9.9000    0.0000 C   0  0  2  0  0  0  0  0  0  0  0  0
    7.8592  -10.3125    0.0000 O   0  0  0  0  0  0  0  0  0  0  0  0
    8.5737   -9.0750    0.0000 C   0  0  1  0  0  0  0  0  0  0  0  0
    7.8592   -8.6625    0.0000 O   0  0  0  0  0  0  0  0  0  0  0  0
    9.2881   -8.6625    0.0000 C   0  0  2  0  0  0  0  0  0  0  0  0
    9.2881   -7.8375    0.0000 N   0  0  0  0  0  0  0  0  0  0  0  0
   10.0026   -7.4250    0.0000 C   0  0  1  0  0  0  0  0  0  0  0  0
   10.0026   -6.6000    0.0000 C   0  0  2  0  0  0  0  0  0  0  0  0
    9.2881   -6.1875    0.0000 C   0  0  0  0  0  0  0  0  0  0  0  0
   10.7171   -6.1875    0.0000 O   0  0  0  0  0  0  0  0  0  0  0  0
   11.4315   -6.6000    0.0000 C   0  0  2  0  0  0  0  0  0  0  0  0
   12.1460   -6.1875    0.0000 O   0  0  0  0  0  0  0  0  0  0  0  0
   12.1460   -5.3625    0.0000 C   0  0  1  0  0  0  0  0  0  0  0  0
   12.8605   -4.9500    0.0000 C   0  0  1  0  0  0  0  0  0  0  0  0
   13.5749   -5.3625    0.0000 C   0  0  0  0  0  0  0  0  0  0  0  0
   14.2894   -4.9500    0.0000 O   0  0  0  0  0  0  0  0  0  0  0  0
   12.8605   -4.1250    0.0000 O   0  0  0  0  0  0  0  0  0  0  0  0
   12.1460   -3.7125    0.0000 C   0  0  2  0  0  0  0  0  0  0  0  0
   12.1460   -2.8875    0.0000 O   0  0  0  0  0  0  0  0  0  0  0  0
   12.8605   -2.4750    0.0000 C   0  0  2  0  0  0  0  0  0  0  0  0
   12.8605   -1.6500    0.0000 C   0  0  1  0  0  0  0  0  0  0  0  0
   12.1460   -1.2375    0.0000 C   0  0  0  0  0  0  0  0  0  0  0  0
   13.5749   -1.2375    0.0000 O   0  0  0  0  0  0  0  0  0  0  0  0
   14.2894   -1.6500    0.0000 C   0  0  1  0  0  0  0  0  0  0  0  0
   15.0039   -1.2375    0.0000 O   0  0  0  0  0  0  0  0  0  0  0  0
   14.2894   -2.4750    0.0000 C   0  0  2  0  0  0  0  0  0  0  0  0
   15.0039   -2.8875    0.0000 O   0  0  0  0  0  0  0  0  0  0  0  0
   13.5749   -2.8875    0.0000 C   0  0  1  0  0  0  0  0  0  0  0  0
   13.5749   -3.7125    0.0000 O   0  0  0  0  0  0  0  0  0  0  0  0
   11.4315   -4.1250    0.0000 C   0  0  1  0  0  0  0  0  0  0  0  0
   10.7171   -3.7125    0.0000 O   0  0  0  0  0  0  0  0  0  0  0  0
   11.4315   -4.9500    0.0000 C   0  0  2  0  0  0  0  0  0  0  0  0
   10.7171   -5.3625    0.0000 O   0  0  0  0  0  0  0  0  0  0  0  0
   11.4315   -7.4250    0.0000 C   0  0  1  0  0  0  0  0  0  0  0  0
   12.1460   -7.8375    0.0000 O   0  0  0  0  0  0  0  0  0  0  0  0
   10.7171   -7.8375    0.0000 C   0  0  2  0  0  0  0  0  0  0  0  0
   10.7171   -8.6625    0.0000 O   0  0  0  0  0  0  0  0  0  0  0  0
   10.0026   -9.0750    0.0000 C   0  0  0  0  0  0  0  0  0  0  0  0
   10.0026   -9.9000    0.0000 C   0  0  0  0  0  0  0  0  0  0  0  0
   10.7171  -10.3125    0.0000 C   0  0  0  0  0  0  0  0  0  0  0  0
   10.7171  -11.1375    0.0000 O   0  0  0  0  0  0  0  0  0  0  0  0
    8.5737  -12.3750    0.0000 C   0  0  1  0  0  0  0  0  0  0  0  0
    9.2881  -12.7875    0.0000 O   0  0  0  0  0  0  0  0  0  0  0  0
    7.8592  -12.7875    0.0000 C   0  0  2  0  0  0  0  0  0  0  0  0
    7.8592  -13.6125    0.0000 O   0  0  0  0  0  0  0  0  0  0  0  0
    5.0013  -12.7875    0.0000 C   0  0  1  0  0  0  0  0  0  0  0  0
    5.0013  -13.6125    0.0000 O   0  0  0  0  0  0  0  0  0  0  0  0
    4.2868  -12.3750    0.0000 C   0  0  2  0  0  0  0  0  0  0  0  0
    3.5724  -12.7875    0.0000 O   0  0  0  0  0  0  0  0  0  0  0  0
    4.2868  -11.5500    0.0000 C   0  0  1  0  0  0  0  0  0  0  0  0
    3.5724  -11.1375    0.0000 O   0  0  0  0  0  0  0  0  0  0  0  0
  2  1  1  6  0  0  0
  2  3  1  0  0  0  0
  3  4  1  0  0  0  0
  4  5  1  6  0  0  0
  6  5  1  1  0  0  0
  6  7  1  0  0  0  0
  7  8  1  1  0  0  0
  8  9  1  0  0  0  0
  7 10  1  0  0  0  0
 10 11  1  0  0  0  0
 11 12  1  6  0  0  0
 13 12  1  6  0  0  0
 13 14  1  0  0  0  0
 14 15  1  6  0  0  0
 14 16  1  0  0  0  0
 16 17  1  1  0  0  0
 16 18  1  0  0  0  0
 18 19  1  6  0  0  0
 20 19  1  1  0  0  0
 20 21  1  0  0  0  0
 21 22  1  6  0  0  0
 21 23  1  0  0  0  0
 23 24  1  0  0  0  0
 24 25  1  6  0  0  0
 26 25  1  6  0  0  0
 26 27  1  0  0  0  0
 27 28  1  6  0  0  0
 28 29  1  0  0  0  0
 27 30  1  0  0  0  0
 30 31  1  0  0  0  0
 31 32  1  1  0  0  0
 33 32  1  6  0  0  0
 33 34  1  0  0  0  0
 34 35  1  1  0  0  0
 34 36  1  0  0  0  0
 36 37  1  0  0  0  0
 37 38  1  1  0  0  0
 37 39  1  0  0  0  0
 39 40  1  6  0  0  0
 39 41  1  0  0  0  0
 33 41  1  0  0  0  0
 41 42  1  1  0  0  0
 31 43  1  0  0  0  0
 43 44  1  6  0  0  0
 43 45  1  0  0  0  0
 26 45  1  0  0  0  0
 45 46  1  1  0  0  0
 24 47  1  0  0  0  0
 47 48  1  1  0  0  0
 47 49  1  0  0  0  0
 20 49  1  0  0  0  0
 49 50  1  6  0  0  0
 18 51  1  0  0  0  0
 51 52  2  0  0  0  0
 13 52  1  0  0  0  0
 52 53  1  0  0  0  0
 53 54  1  0  0  0  0
 11 55  1  0  0  0  0
 55 56  1  1  0  0  0
 55 57  1  0  0  0  0
  6 57  1  0  0  0  0
 57 58  1  6  0  0  0
  4 59  1  0  0  0  0
 59 60  1  1  0  0  0
 59 61  1  0  0  0  0
 61 62  1  6  0  0  0
 61 63  1  0  0  0  0
  2 63  1  0  0  0  0
 63 64  1  1  0  0  0
M  END
> <DRUGBANK_ID>
DB03617

> <DRUG_GROUPS>
experimental

> <GENERIC_NAME>
Modified Acarbose Hexasaccharide

> <CHEMICAL_FORMULA>
C37H63NO26

> <MOLECULAR_WEIGHT>
937.8872

> <EXACT_MASS>
937.363831193

> <IUPAC_NAME>
(2R,3S,4R,5R,6S)-2-{[(2R,3R,4S,5S,6S)-6-{[(1S,4R,5S,6R)-4-{[(2S,3R,4R,5S,6R)-6-{[(2R,3R,4S,5S,6R)-4,5-dihydroxy-2-(hydroxymethyl)-6-{[(2R,3S,4R,5R,6R)-4,5,6-trihydroxy-2-methyloxan-3-yl]oxy}oxan-3-yl]oxy}-4,5-dihydroxy-2-methyloxan-3-yl]amino}-5,6-dihydroxy-2-(hydroxymethyl)cyclohex-2-en-1-yl]oxy}-4,5-dihydroxy-2-(hydroxymethyl)oxan-3-yl]oxy}-6-methyloxane-3,4,5-triol

> <IUPAC_TRADITIONAL_NAME>
(2R,3S,4R,5R,6S)-2-{[(2R,3R,4S,5S,6S)-6-{[(1S,4R,5S,6R)-4-{[(2S,3R,4R,5S,6R)-6-{[(2R,3R,4S,5S,6R)-4,5-dihydroxy-2-(hydroxymethyl)-6-{[(2R,3S,4R,5R,6R)-4,5,6-trihydroxy-2-methyloxan-3-yl]oxy}oxan-3-yl]oxy}-4,5-dihydroxy-2-methyloxan-3-yl]amino}-5,6-dihydroxy-2-(hydroxymethyl)cyclohex-2-en-1-yl]oxy}-4,5-dihydroxy-2-(hydroxymethyl)oxan-3-yl]oxy}-6-methyloxane-3,4,5-triol

> <INCHI_IDENTIFIER>
InChI=1S/C37H63NO26/c1-8-15(18(44)25(51)34(57-8)63-31-13(6-40)59-36(27(53)22(31)48)61-29-10(3)56-33(55)24(50)21(29)47)38-12-4-11(5-39)30(20(46)17(12)43)62-37-28(54)23(49)32(14(7-41)60-37)64-35-26(52)19(45)16(42)9(2)58-35/h4,8-10,12-55H,5-7H2,1-3H3/t8-,9-,10+,12+,13+,14+,15-,16-,17-,18+,19+,20+,21+,22-,23-,24+,25-,26-,27-,28-,29+,30-,31-,32-,33+,34+,35+,36+,37+/m0/s1

> <INCHI_KEY>
InChIKey=YXELUDMUQSCWQW-VCCNSJHSSA-N

> <SMILES>
C[C@@H]1O[C@H](O[C@H]2[C@@H](CO)O[C@H](O[C@@H]3[C@H](O)[C@@H](O)[C@H](N[C@H]4[C@H](C)O[C@H](O[C@H]5[C@@H](CO)O[C@H](O[C@@H]6[C@@H](C)O[C@@H](O)[C@H](O)[C@H]6O)[C@@H](O)[C@@H]5O)[C@@H](O)[C@@H]4O)C=C3CO)[C@@H](O)[C@@H]2O)[C@@H](O)[C@H](O)[C@H]1O

> <JCHEM_ACCEPTOR_COUNT>
27

> <JCHEM_DONOR_COUNT>
18

> <JCHEM_ACIDIC_PKA>
11.18

> <JCHEM_BASIC_PKA>
7.33

> <JCHEM_PHYSIOLOGICAL_CHARGE>
1

> <ALOGPS_LOGP>
-2.2

> <JCHEM_LOGP>
-9.1

> <ALOGPS_LOGS>
-1.1

> <JCHEM_POLARIZABILITY>
91.41

> <JCHEM_POLAR_SURFACE_AREA>
439.01

> <JCHEM_REFRACTIVITY>
199.34

> <JCHEM_ROTATABLE_BOND_COUNT>
13

> <ALOGPS_SOLUBILITY>
7.11e+01 g/l __ 

$$$$
