
  Mrv0541 02231217172D          

 60 67  0  0  1  0            999 V2000
    6.9866    5.3474    0.0000 C    0  0  0  0  0  0  0  0  0  0  0  0
    6.1635    5.2917    0.0000 O    0  0  0  0  0  0  0  0  0  0  0  0
    5.8001    4.5511    0.0000 C    0  0  0  0  0  0  0  0  0  0  0  0
    4.9770    4.4955    0.0000 C    0  0  0  0  0  0  0  0  0  0  0  0
    4.6136    3.7548    0.0000 C    0  0  0  0  0  0  0  0  0  0  0  0
    5.0733    3.0698    0.0000 C    0  0  0  0  0  0  0  0  0  0  0  0
    4.7099    2.3291    0.0000 N    0  0  0  0  0  0  0  0  0  0  0  0
    3.8868    2.2735    0.0000 C    0  0  0  0  0  0  0  0  0  0  0  0
    3.5234    1.5328    0.0000 O    0  0  0  0  0  0  0  0  0  0  0  0
    3.4271    2.9585    0.0000 C    0  0  0  0  0  0  0  0  0  0  0  0
    2.6040    2.9029    0.0000 C    0  0  0  0  0  0  0  0  0  0  0  0
    3.7905    3.6992    0.0000 O    0  0  0  0  0  0  0  0  0  0  0  0
    5.8964    3.1254    0.0000 C    0  0  0  0  0  0  0  0  0  0  0  0
    6.2598    3.8661    0.0000 C    0  0  0  0  0  0  0  0  0  0  0  0
    6.3562    2.4404    0.0000 C    0  0  0  0  0  0  0  0  0  0  0  0
    7.1793    2.4960    0.0000 O    0  0  0  0  0  0  0  0  0  0  0  0
    5.9928    1.6997    0.0000 O    0  0  0  0  0  0  0  0  0  0  0  0
    6.4525    1.0147    0.0000 C    0  0  1  0  0  0  0  0  0  0  0  0
    7.2470    1.2919    0.0000 C    0  0  0  0  0  0  0  0  0  0  0  0
    8.0846    1.1495    0.0000 O    0  0  0  0  0  0  0  0  0  0  0  0
    8.7881    0.6601    0.0000 C    0  0  0  0  0  0  0  0  0  0  0  0
    9.3875    1.2270    0.0000 O    0  0  0  0  0  0  0  0  0  0  0  0
    9.2415   -0.0760    0.0000 C    0  0  0  0  0  0  0  0  0  0  0  0
    9.3837   -0.9336    0.0000 C    0  0  1  0  0  0  0  0  0  0  0  0
   10.2020   -1.0388    0.0000 N    0  3  0  0  0  0  0  0  0  0  0  0
    9.0288   -1.7280    0.0000 C    0  0  0  0  0  0  0  0  0  0  0  0
    8.9534   -2.5713    0.0000 C    0  0  0  0  0  0  0  0  0  0  0  0
    8.2072   -2.9547    0.0000 C    0  0  0  0  0  0  0  0  0  0  0  0
    8.1815   -3.7793    0.0000 O    0  0  0  0  0  0  0  0  0  0  0  0
    7.4692   -2.5156    0.0000 C    0  0  0  0  0  0  0  0  0  0  0  0
    6.5811   -2.4798    0.0000 O    0  0  0  0  0  0  0  0  0  0  0  0
    5.7398   -2.1743    0.0000 C    0  0  1  0  0  0  0  0  0  0  0  0
    5.7957   -1.3254    0.0000 C    0  0  0  0  0  0  0  0  0  0  0  0
    6.5113   -0.9189    0.0000 C    0  0  0  0  0  0  0  0  0  0  0  0
    6.5648   -0.1025    0.0000 C    0  0  0  0  0  0  0  0  0  0  0  0
    5.8861    0.3745    0.0000 C    0  0  0  0  0  0  0  0  0  0  0  0
    5.1421   -0.0318    0.0000 C    0  0  0  0  0  0  0  0  0  0  0  0
    5.0820   -0.8905    0.0000 C    0  0  0  0  0  0  0  0  0  0  0  0
    4.5010   -1.5010    0.0000 C    0  0  0  0  0  0  0  0  0  0  0  0
    3.6872   -1.6364    0.0000 C    0  0  0  0  0  0  0  0  0  0  0  0
    3.5645   -2.4523    0.0000 C    0  0  0  0  0  0  0  0  0  0  0  0
    4.3025   -2.8210    0.0000 C    0  0  0  0  0  0  0  0  0  0  0  0
    4.8813   -2.2331    0.0000 C    0  0  1  0  0  0  0  0  0  0  0  0
    5.2258   -2.9827    0.0000 O    0  0  0  0  0  0  0  0  0  0  0  0
    4.7489   -3.6559    0.0000 C    0  0  2  0  0  0  0  0  0  0  0  0
    5.0934   -4.4055    0.0000 O    0  0  0  0  0  0  0  0  0  0  0  0
    4.6165   -5.0787    0.0000 C    0  0  0  0  0  0  0  0  0  0  0  0
    5.3622   -5.4315    0.0000 C    0  0  0  0  0  0  0  0  0  0  0  0
    4.3986   -5.8744    0.0000 C    0  0  0  0  0  0  0  0  0  0  0  0
    3.7950   -5.0023    0.0000 C    0  0  2  0  0  0  0  0  0  0  0  0
    3.4505   -4.2526    0.0000 C    0  0  2  0  0  0  0  0  0  0  0  0
    2.6290   -4.1762    0.0000 O    0  0  0  0  0  0  0  0  0  0  0  0
    3.9274   -3.5795    0.0000 C    0  0  1  0  0  0  0  0  0  0  0  0
    3.5829   -2.8299    0.0000 O    0  0  0  0  0  0  0  0  0  0  0  0
    3.3181   -5.6754    0.0000 N    0  0  0  0  0  0  0  0  0  0  0  0
    3.6626   -6.4251    0.0000 C    0  0  0  0  0  0  0  0  0  0  0  0
    2.4967   -5.5990    0.0000 C    0  0  0  0  0  0  0  0  0  0  0  0
    7.5735   -1.6878    0.0000 C    0  0  0  0  0  0  0  0  0  0  0  0
    6.8989   -1.2128    0.0000 Cl   0  0  0  0  0  0  0  0  0  0  0  0
    8.3085   -1.3153    0.0000 C    0  0  0  0  0  0  0  0  0  0  0  0
  1  2  1  0  0  0  0
  2  3  1  0  0  0  0
  3  4  2  0  0  0  0
  4  5  1  0  0  0  0
  5  6  2  0  0  0  0
  6  7  1  0  0  0  0
  7  8  1  0  0  0  0
  8  9  2  0  0  0  0
  8 10  1  0  0  0  0
 10 11  2  0  0  0  0
 10 12  1  0  0  0  0
  5 12  1  0  0  0  0
  6 13  1  0  0  0  0
 13 14  2  0  0  0  0
  3 14  1  0  0  0  0
 13 15  1  0  0  0  0
 15 16  2  0  0  0  0
 15 17  1  0  0  0  0
 18 17  1  1  0  0  0
 18 19  1  0  0  0  0
 19 20  1  0  0  0  0
 20 21  1  0  0  0  0
 21 22  2  0  0  0  0
 21 23  1  0  0  0  0
 23 24  1  0  0  0  0
 24 25  1  1  0  0  0
 24 26  1  0  0  0  0
 26 27  2  0  0  0  0
 27 28  1  0  0  0  0
 28 29  1  0  0  0  0
 28 30  2  0  0  0  0
 30 31  1  0  0  0  0
 32 31  1  6  0  0  0
 32 33  1  0  0  0  0
 33 34  2  0  0  0  0
 34 35  1  0  0  0  0
 35 36  2  0  0  0  0
 18 36  1  0  0  0  0
 36 37  1  0  0  0  0
 37 38  2  0  0  0  0
 33 38  1  0  0  0  0
 38 39  1  0  0  0  0
 39 40  2  0  0  0  0
 40 41  1  0  0  0  0
 41 42  2  0  0  0  0
 42 43  1  0  0  0  0
 32 43  1  0  0  0  0
 39 43  1  0  0  0  0
 43 44  1  1  0  0  0
 45 44  1  6  0  0  0
 45 46  1  0  0  0  0
 46 47  1  0  0  0  0
 47 48  1  0  0  0  0
 47 49  1  0  0  0  0
 47 50  1  0  0  0  0
 50 51  1  0  0  0  0
 51 52  1  6  0  0  0
 51 53  1  0  0  0  0
 45 53  1  0  0  0  0
 53 54  1  1  0  0  0
 50 55  1  1  0  0  0
 55 56  1  0  0  0  0
 55 57  1  0  0  0  0
 30 58  1  0  0  0  0
 58 59  1  0  0  0  0
 58 60  2  0  0  0  0
 26 60  1  0  0  0  0
M  END
> <DRUGBANK_ID>
DB03933

> <DRUG_GROUPS>
experimental

> <GENERIC_NAME>
C-1027 Aromatized Chromophore

> <CHEMICAL_FORMULA>
C43H45ClN3O13

> <MOLECULAR_WEIGHT>
847.283

> <EXACT_MASS>
846.264091248

> <IUPAC_NAME>
(3S,4S,14R,19R)-23-chloro-4-{[(2S,3R,4S,5S)-5-(dimethylamino)-3,4-dihydroxy-6,6-dimethyloxan-2-yl]oxy}-22-hydroxy-14-[(7-methoxy-2-methylidene-3-oxo-3,4-dihydro-2H-1,4-benzoxazin-5-yl)carbonyloxy]-17-oxo-2,16-dioxapentacyclo[18.2.2.1^{9,13}.0^{3,10}.0^{4,8}]pentacosa-1(22),5,7,9(25),10,12,20,23-octaen-19-aminium

> <IUPAC_TRADITIONAL_NAME>
(3S,4S,14R,19R)-23-chloro-4-{[(2S,3R,4S,5S)-5-(dimethylamino)-3,4-dihydroxy-6,6-dimethyloxan-2-yl]oxy}-22-hydroxy-14-[(7-methoxy-2-methylidene-3-oxo-4H-1,4-benzoxazin-5-yl)carbonyloxy]-17-oxo-2,16-dioxapentacyclo[18.2.2.1^{9,13}.0^{3,10}.0^{4,8}]pentacosa-1(22),5,7,9(25),10,12,20,23-octaen-19-aminium

> <INCHI_IDENTIFIER>
InChI=1S/C43H44ClN3O13/c1-19-39(52)46-33-25(15-22(54-6)16-30(33)56-19)40(53)57-31-18-55-32(49)17-28(45)21-13-27(44)36(29(48)14-21)58-38-23-10-9-20(31)12-24(23)26-8-7-11-43(26,38)60-41-35(51)34(50)37(47(4)5)42(2,3)59-41/h7-16,28,31,34-35,37-38,41,48,50-51H,1,17-18,45H2,2-6H3,(H,46,52)/p+1/t28-,31+,34-,35-,37+,38+,41+,43+/m1/s1

> <INCHI_KEY>
InChIKey=SAWXMTQYIIZWNU-USRAUIIXSA-O

> <SMILES>
COC1=CC2=C(NC(=O)C(=C)O2)C(=C1)C(=O)O[C@H]1COC(=O)C[C@@H]([NH3+])C2=CC(O)=C(O[C@H]3C4=CC=C1C=C4C1=CC=C[C@@]31O[C@@H]1OC(C)(C)[C@H]([C@H](O)[C@H]1O)N(C)C)C(Cl)=C2

> <JCHEM_ACCEPTOR_COUNT>
12

> <JCHEM_DONOR_COUNT>
5

> <JCHEM_ACIDIC_PKA>
8.95

> <JCHEM_BASIC_PKA>
8.51

> <JCHEM_PHYSIOLOGICAL_CHARGE>
2

> <ALOGPS_LOGP>
2.51

> <JCHEM_LOGP>
3.57

> <ALOGPS_LOGS>
-5

> <JCHEM_POLARIZABILITY>
86.16

> <JCHEM_POLAR_SURFACE_AREA>
219.42

> <JCHEM_REFRACTIVITY>
229.14

> <JCHEM_ROTATABLE_BOND_COUNT>
7

> <ALOGPS_SOLUBILITY>
9.27e-03 g/l __ 

$$$$
