
  Mrv0541 02231216452D          

 63 67  0  0  1  0            999 V2000
   11.4117    6.5906    0.0000 C   0  0  0  0  0  0  0  0  0  0  0  0
   12.1262    6.1781    0.0000 O   0  0  0  0  0  0  0  0  0  0  0  0
   12.1262    5.3531    0.0000 C   0  0  0  0  0  0  0  0  0  0  0  0
   12.8407    4.9406    0.0000 C   0  0  0  0  0  0  0  0  0  0  0  0
   12.8407    4.1156    0.0000 C   0  0  0  0  0  0  0  0  0  0  0  0
   13.5551    3.7031    0.0000 C   0  0  0  0  0  0  0  0  0  0  0  0
   13.5551    2.8781    0.0000 C   0  0  0  0  0  0  0  0  0  0  0  0
   14.2696    2.4656    0.0000 C   0  0  0  0  0  0  0  0  0  0  0  0
   14.2696    1.6406    0.0000 O   0  0  0  0  0  0  0  0  0  0  0  0
   14.9841    2.8781    0.0000 S   0  0  0  0  0  0  0  0  0  0  0  0
   15.6986    2.4656    0.0000 C   0  0  0  0  0  0  0  0  0  0  0  0
   16.4130    2.8781    0.0000 C   0  0  0  0  0  0  0  0  0  0  0  0
   17.1275    2.4656    0.0000 N   0  0  0  0  0  0  0  0  0  0  0  0
   17.8420    2.8781    0.0000 C   0  0  0  0  0  0  0  0  0  0  0  0
   17.8420    3.7031    0.0000 O   0  0  0  0  0  0  0  0  0  0  0  0
   18.5564    2.4656    0.0000 C   0  0  0  0  0  0  0  0  0  0  0  0
   19.2709    2.8781    0.0000 C   0  0  0  0  0  0  0  0  0  0  0  0
   19.9854    2.4656    0.0000 N   0  0  0  0  0  0  0  0  0  0  0  0
   20.6998    2.8781    0.0000 C   0  0  0  0  0  0  0  0  0  0  0  0
   20.6998    3.7031    0.0000 O   0  0  0  0  0  0  0  0  0  0  0  0
   21.4143    2.4656    0.0000 C   0  0  2  0  0  0  0  0  0  0  0  0
   21.1322    1.6904    0.0000 O   0  0  0  0  0  0  0  0  0  0  0  0
   21.9446    3.0976    0.0000 C   0  0  2  0  0  0  0  0  0  0  0  0
   22.0879    3.9101    0.0000 O   0  0  0  0  0  0  0  0  0  0  0  0
   22.8631    4.1922    0.0000 P   0  0  1  0  0  0  0  0  0  0  0  0
   23.1453    3.4170    0.0000 O   0  0  0  0  0  0  0  0  0  0  0  0
   22.5810    4.9675    0.0000 O   0  0  0  0  0  0  0  0  0  0  0  0
   23.6384    4.4744    0.0000 O   0  0  0  0  0  0  0  0  0  0  0  0
   24.2704    3.9441    0.0000 P   0  0  2  0  0  0  0  0  0  0  0  0
   23.7401    3.3121    0.0000 O   0  0  0  0  0  0  0  0  0  0  0  0
   24.8007    4.5761    0.0000 O   0  0  0  0  0  0  0  0  0  0  0  0
   24.9023    3.4138    0.0000 O   0  0  0  0  0  0  0  0  0  0  0  0
   25.6776    3.6960    0.0000 C   0  0  0  0  0  0  0  0  0  0  0  0
   26.3096    3.1657    0.0000 C   0  0  1  0  0  0  0  0  0  0  0  0
   27.1101    3.3652    0.0000 O   0  0  0  0  0  0  0  0  0  0  0  0
   27.5473    2.6656    0.0000 C   0  0  2  0  0  0  0  0  0  0  0  0
   27.0170    2.0336    0.0000 C   0  0  1  0  0  0  0  0  0  0  0  0
   27.2165    1.2331    0.0000 O   0  0  0  0  0  0  0  0  0  0  0  0
   26.2520    2.3427    0.0000 C   0  0  2  0  0  0  0  0  0  0  0  0
   25.5524    1.9055    0.0000 O   0  0  0  0  0  0  0  0  0  0  0  0
   24.8240    2.2928    0.0000 P   0  0  0  0  0  0  0  0  0  0  0  0
   25.2113    3.0212    0.0000 O   0  0  0  0  0  0  0  0  0  0  0  0
   24.4366    1.5644    0.0000 O   0  0  0  0  0  0  0  0  0  0  0  0
   24.0955    2.6801    0.0000 O   0  0  0  0  0  0  0  0  0  0  0  0
   28.3702    2.6081    0.0000 N   0  0  0  0  0  0  0  0  0  0  0  0
   28.9005    3.2400    0.0000 C   0  0  0  0  0  0  0  0  0  0  0  0
   29.6655    2.9310    0.0000 N   0  0  0  0  0  0  0  0  0  0  0  0
   29.6079    2.1080    0.0000 C   0  0  0  0  0  0  0  0  0  0  0  0
   30.1810    1.5145    0.0000 C   0  0  0  0  0  0  0  0  0  0  0  0
   30.9815    1.7141    0.0000 N   0  0  0  0  0  0  0  0  0  0  0  0
   29.9536    0.7215    0.0000 N   0  0  0  0  0  0  0  0  0  0  0  0
   29.1531    0.5219    0.0000 C   0  0  0  0  0  0  0  0  0  0  0  0
   28.5800    1.1154    0.0000 N   0  0  0  0  0  0  0  0  0  0  0  0
   28.8074    1.9084    0.0000 C   0  0  0  0  0  0  0  0  0  0  0  0
   22.2268    2.3223    0.0000 C   0  0  0  0  0  0  0  0  0  0  0  0
   23.0486    2.2504    0.0000 C   0  0  0  0  0  0  0  0  0  0  0  0
   22.4403    1.5255    0.0000 C   0  0  0  0  0  0  0  0  0  0  0  0
   12.1262    3.7031    0.0000 C   0  0  0  0  0  0  0  0  0  0  0  0
   11.4117    4.1156    0.0000 C   0  0  0  0  0  0  0  0  0  0  0  0
   10.6973    3.7031    0.0000 O   0  0  0  0  0  0  0  0  0  0  0  0
    9.9828    4.1156    0.0000 C   0  0  0  0  0  0  0  0  0  0  0  0
   11.4117    4.9406    0.0000 C   0  0  0  0  0  0  0  0  0  0  0  0
   10.6973    5.3531    0.0000 O   0  0  0  0  0  0  0  0  0  0  0  0
  1  2  1  0  0  0  0
  2  3  1  0  0  0  0
  3  4  2  0  0  0  0
  4  5  1  0  0  0  0
  5  6  1  0  0  0  0
  6  7  2  0  0  0  0
  7  8  1  0  0  0  0
  8  9  2  0  0  0  0
  8 10  1  0  0  0  0
 10 11  1  0  0  0  0
 11 12  1  0  0  0  0
 12 13  1  0  0  0  0
 13 14  1  0  0  0  0
 14 15  2  0  0  0  0
 14 16  1  0  0  0  0
 16 17  1  0  0  0  0
 17 18  1  0  0  0  0
 18 19  1  0  0  0  0
 19 20  2  0  0  0  0
 21 19  1  6  0  0  0
 21 22  1  1  0  0  0
 21 23  1  0  0  0  0
 23 24  1  6  0  0  0
 25 24  1  1  0  0  0
 25 26  1  6  0  0  0
 25 27  2  0  0  0  0
 25 28  1  0  0  0  0
 29 28  1  6  0  0  0
 29 30  1  1  0  0  0
 29 31  2  0  0  0  0
 29 32  1  0  0  0  0
 32 33  1  0  0  0  0
 34 33  1  1  0  0  0
 34 35  1  0  0  0  0
 35 36  1  0  0  0  0
 36 37  1  0  0  0  0
 37 38  1  1  0  0  0
 37 39  1  0  0  0  0
 34 39  1  0  0  0  0
 39 40  1  6  0  0  0
 40 41  1  0  0  0  0
 41 42  1  0  0  0  0
 41 43  1  0  0  0  0
 41 44  2  0  0  0  0
 36 45  1  1  0  0  0
 45 46  1  0  0  0  0
 46 47  2  0  0  0  0
 47 48  1  0  0  0  0
 48 49  2  0  0  0  0
 49 50  1  0  0  0  0
 49 51  1  0  0  0  0
 51 52  2  0  0  0  0
 52 53  1  0  0  0  0
 53 54  2  0  0  0  0
 45 54  1  0  0  0  0
 48 54  1  0  0  0  0
 23 55  1  0  0  0  0
 21 55  1  0  0  0  0
 55 56  1  0  0  0  0
 55 57  1  0  0  0  0
  5 58  2  0  0  0  0
 58 59  1  0  0  0  0
 59 60  1  0  0  0  0
 60 61  1  0  0  0  0
 59 62  2  0  0  0  0
  3 62  1  0  0  0  0
 62 63  1  0  0  0  0
M  END
> <DRUGBANK_ID>
DB03179

> <DRUG_GROUPS>
experimental

> <GENERIC_NAME>
Sinapoyl Coenzyme A

> <CHEMICAL_FORMULA>
C32H44N7O20P3S

> <MOLECULAR_WEIGHT>
971.713

> <EXACT_MASS>
971.157467109

> <IUPAC_NAME>
{[(2R,3S,4S,5R)-5-(6-amino-9H-purin-9-yl)-4-hydroxy-2-({[hydroxy({hydroxy[(1R,2R)-2-hydroxy-2-({2-[(2-{[(2E)-3-(4-hydroxy-3,5-dimethoxyphenyl)prop-2-enoyl]sulfanyl}ethyl)carbamoyl]ethyl}carbamoyl)-3,3-dimethylcyclopropoxy]phosphoryl}oxy)phosphoryl]oxy}methyl)oxolan-3-yl]oxy}phosphonic acid

> <IUPAC_TRADITIONAL_NAME>
[(2R,3S,4S,5R)-5-(6-aminopurin-9-yl)-4-hydroxy-2-[({hydroxy[hydroxy(1R,2R)-2-hydroxy-2-({2-[(2-{[(2E)-3-(4-hydroxy-3,5-dimethoxyphenyl)prop-2-enoyl]sulfanyl}ethyl)carbamoyl]ethyl}carbamoyl)-3,3-dimethylcyclopropoxyphosphoryl]oxyphosphoryl}oxy)methyl]oxolan-3-yl]oxyphosphonic acid

> <INCHI_IDENTIFIER>
InChI=1S/C32H44N7O20P3S/c1-31(2)29(32(31,45)30(44)35-8-7-20(40)34-9-10-63-21(41)6-5-16-11-17(53-3)23(42)18(12-16)54-4)58-62(51,52)59-61(49,50)55-13-19-25(57-60(46,47)48)24(43)28(56-19)39-15-38-22-26(33)36-14-37-27(22)39/h5-6,11-12,14-15,19,24-25,28-29,42-43,45H,7-10,13H2,1-4H3,(H,34,40)(H,35,44)(H,49,50)(H,51,52)(H2,33,36,37)(H2,46,47,48)/b6-5+/t19-,24+,25-,28-,29-,32-/m1/s1

> <INCHI_KEY>
InChIKey=HJGDVDUGXUSOGA-YMVOPXNESA-N

> <SMILES>
COC1=CC(\C=C\C(=O)SCCNC(=O)CCNC(=O)[C@@]2(O)C(C)(C)[C@H]2O[P@@](O)(=O)O[P@](O)(=O)OC[C@H]2O[C@H]([C@@H](O)[C@@H]2OP(O)(O)=O)N2C=NC3=C(N)N=CN=C23)=CC(OC)=C1O

> <JCHEM_ACCEPTOR_COUNT>
20

> <JCHEM_DONOR_COUNT>
10

> <JCHEM_ACIDIC_PKA>
0.82

> <JCHEM_BASIC_PKA>
4.95

> <JCHEM_PHYSIOLOGICAL_CHARGE>
-4

> <ALOGPS_LOGP>
0.43

> <JCHEM_LOGP>
-5.1

> <ALOGPS_LOGS>
-2.5

> <JCHEM_POLARIZABILITY>
89.37

> <JCHEM_POLAR_SURFACE_AREA>
402.32

> <JCHEM_REFRACTIVITY>
215.2

> <JCHEM_ROTATABLE_BOND_COUNT>
22

> <ALOGPS_SOLUBILITY>
3.03e+00 g/l __ 

$$$$
