
  Mrv0541 02231216592D          

  6  5  0  0  0  0            999 V2000
    1.2375    2.1434    0.0000 C   0  0  0  0  0  0  0  0  0  0  0  0
    0.8250    1.4289    0.0000 S   0  0  0  0  0  0  0  0  0  0  0  0
    1.2375    0.7145    0.0000 C   0  0  0  0  0  0  0  0  0  0  0  0
    0.8250    0.0000    0.0000 C   0  0  0  0  0  0  0  0  0  0  0  0
    1.2375   -0.7145    0.0000 O   0  5  0  0  0  0  0  0  0  0  0  0
    0.0000    0.0000    0.0000 O   0  0  0  0  0  0  0  0  0  0  0  0
  1  2  1  0  0  0  0
  2  3  1  0  0  0  0
  3  4  1  0  0  0  0
  4  5  1  0  0  0  0
  4  6  2  0  0  0  0
M  END
> <DRUGBANK_ID>
DB03517

> <DRUG_GROUPS>
experimental

> <GENERIC_NAME>
[Methylthio]Acetate

> <CHEMICAL_FORMULA>
C3H5O2S

> <MOLECULAR_WEIGHT>
105.136

> <EXACT_MASS>
105.001025094

> <IUPAC_NAME>
2-(methylsulfanyl)acetate

> <IUPAC_TRADITIONAL_NAME>
(methylthio)acetate

> <INCHI_IDENTIFIER>
InChI=1S/C3H6O2S/c1-6-2-3(4)5/h2H2,1H3,(H,4,5)/p-1

> <INCHI_KEY>
InChIKey=HGTBAIVLETUVCG-UHFFFAOYSA-M

> <SMILES>
CSCC([O-])=O

> <JCHEM_ACCEPTOR_COUNT>
2

> <JCHEM_DONOR_COUNT>
0

> <JCHEM_ACIDIC_PKA>
4.36

> <JCHEM_PHYSIOLOGICAL_CHARGE>
-1

> <ALOGPS_LOGP>
0

> <JCHEM_LOGP>
0.39

> <ALOGPS_LOGS>
-0.26

> <JCHEM_POLARIZABILITY>
9.75

> <JCHEM_POLAR_SURFACE_AREA>
40.13

> <JCHEM_REFRACTIVITY>
35.96

> <JCHEM_ROTATABLE_BOND_COUNT>
2

> <ALOGPS_SOLUBILITY>
6.79e+01 g/l __ 

$$$$
