
  Mrv0541 02231216372D          

 13 13  0  0  1  0            999 V2000
    2.0572    1.7262    0.0000 O   0  0  0  0  0  0  0  0  0  0  0  0
    1.2448    1.8695    0.0000 C   0  0  0  0  0  0  0  0  0  0  0  0
    0.7145    1.2375    0.0000 C   0  0  1  0  0  0  0  0  0  0  0  0
    0.1842    1.8695    0.0000 F   0  0  0  0  0  0  0  0  0  0  0  0
    1.4289    0.8250    0.0000 O   0  0  0  0  0  0  0  0  0  0  0  0
    1.4289    0.0000    0.0000 C   0  0  2  0  0  0  0  0  0  0  0  0
    2.1434   -0.4125    0.0000 F   0  0  0  0  0  0  0  0  0  0  0  0
    0.7145   -0.4125    0.0000 C   0  0  1  0  0  0  0  0  0  0  0  0
    0.7145   -1.2375    0.0000 O   0  0  0  0  0  0  0  0  0  0  0  0
    0.0000    0.0000    0.0000 C   0  0  2  0  0  0  0  0  0  0  0  0
   -0.7145   -0.4125    0.0000 O   0  0  0  0  0  0  0  0  0  0  0  0
    0.0000    0.8250    0.0000 C   0  0  1  0  0  0  0  0  0  0  0  0
   -0.7145    1.2375    0.0000 O   0  0  0  0  0  0  0  0  0  0  0  0
  1  2  1  0  0  0  0
  3  2  1  1  0  0  0
  3  4  1  6  0  0  0
  3  5  1  0  0  0  0
  5  6  1  0  0  0  0
  6  7  1  6  0  0  0
  6  8  1  0  0  0  0
  8  9  1  1  0  0  0
  8 10  1  0  0  0  0
 10 11  1  6  0  0  0
 10 12  1  0  0  0  0
  3 12  1  0  0  0  0
 12 13  1  1  0  0  0
M  END
> <DRUGBANK_ID>
DB03008

> <DRUG_GROUPS>
experimental

> <GENERIC_NAME>
5-Fluoro-Beta-L-Gulosyl Fluoride

> <CHEMICAL_FORMULA>
C6H10F2O5

> <MOLECULAR_WEIGHT>
200.1374

> <EXACT_MASS>
200.04962984

> <IUPAC_NAME>
(2S,3R,4S,5S,6R)-2,6-difluoro-2-(hydroxymethyl)oxane-3,4,5-triol

> <IUPAC_TRADITIONAL_NAME>
(2S,3R,4S,5S,6R)-2,6-difluoro-2-(hydroxymethyl)oxane-3,4,5-triol

> <INCHI_IDENTIFIER>
InChI=1S/C6H10F2O5/c7-5-3(11)2(10)4(12)6(8,1-9)13-5/h2-5,9-12H,1H2/t2-,3-,4+,5-,6+/m0/s1

> <INCHI_KEY>
InChIKey=MGHYRMVVRYCAON-MDMQIMBFSA-N

> <SMILES>
OC[C@@]1(F)O[C@H](F)[C@@H](O)[C@H](O)[C@H]1O

> <JCHEM_ACCEPTOR_COUNT>
5

> <JCHEM_DONOR_COUNT>
4

> <JCHEM_ACIDIC_PKA>
11.61

> <JCHEM_BASIC_PKA>
-3.6

> <JCHEM_PHYSIOLOGICAL_CHARGE>
0

> <ALOGPS_LOGP>
-0.83

> <JCHEM_LOGP>
-1.6

> <ALOGPS_LOGS>
0.11

> <JCHEM_POLARIZABILITY>
15.35

> <JCHEM_POLAR_SURFACE_AREA>
90.15

> <JCHEM_REFRACTIVITY>
34.63

> <JCHEM_ROTATABLE_BOND_COUNT>
1

> <ALOGPS_SOLUBILITY>
2.56e+02 g/l __ 

$$$$
