
  Mrv0541 02231216542D          

 28 30  0  0  0  0            999 V2000
    1.4289    0.8250    0.0000 C    0  0  0  0  0  0  0  0  0  0  0  0
    1.4289    0.0000    0.0000 C    0  0  0  0  0  0  0  0  0  0  0  0
    2.1434   -0.4125    0.0000 C    0  0  0  0  0  0  0  0  0  0  0  0
    0.7145   -0.4125    0.0000 N    0  0  0  0  0  0  0  0  0  0  0  0
    0.0000    0.0000    0.0000 C    0  0  0  0  0  0  0  0  0  0  0  0
   -0.7145   -0.4125    0.0000 O    0  0  0  0  0  0  0  0  0  0  0  0
    0.0000    0.8250    0.0000 C    0  0  0  0  0  0  0  0  0  0  0  0
   -0.7145    1.2375    0.0000 C    0  0  0  0  0  0  0  0  0  0  0  0
   -1.4289    0.8250    0.0000 Cl   0  0  0  0  0  0  0  0  0  0  0  0
   -0.7145    2.0625    0.0000 C    0  0  0  0  0  0  0  0  0  0  0  0
    0.0000    2.4750    0.0000 C    0  0  0  0  0  0  0  0  0  0  0  0
    0.0000    3.3000    0.0000 Cl   0  0  0  0  0  0  0  0  0  0  0  0
    0.7145    2.0625    0.0000 C    0  0  0  0  0  0  0  0  0  0  0  0
    0.7145    1.2375    0.0000 C    0  0  0  0  0  0  0  0  0  0  0  0
    0.7145   -1.2375    0.0000 C    0  0  0  0  0  0  0  0  0  0  0  0
    1.3819   -1.7224    0.0000 C    0  0  0  0  0  0  0  0  0  0  0  0
    1.1270   -2.5070    0.0000 S    0  0  0  0  0  0  0  0  0  0  0  0
    0.3020   -2.5070    0.0000 C    0  0  0  0  0  0  0  0  0  0  0  0
    0.0470   -1.7224    0.0000 C    0  0  0  0  0  0  0  0  0  0  0  0
   -0.1830   -3.1745    0.0000 C    0  0  0  0  0  0  0  0  0  0  0  0
    0.1526   -3.9282    0.0000 C    0  0  0  0  0  0  0  0  0  0  0  0
   -0.3323   -4.5956    0.0000 C    0  0  0  0  0  0  0  0  0  0  0  0
   -1.1528   -4.5094    0.0000 C    0  0  0  0  0  0  0  0  0  0  0  0
   -1.4884   -3.7557    0.0000 C    0  0  0  0  0  0  0  0  0  0  0  0
   -1.0034   -3.0882    0.0000 C    0  0  0  0  0  0  0  0  0  0  0  0
    2.1665   -1.4675    0.0000 C    0  0  0  0  0  0  0  0  0  0  0  0
    2.7796   -2.0195    0.0000 O    0  0  0  0  0  0  0  0  0  0  0  0
    2.3381   -0.6605    0.0000 O    0  0  0  0  0  0  0  0  0  0  0  0
  1  2  1  0  0  0  0
  2  3  1  0  0  0  0
  2  4  1  0  0  0  0
  4  5  1  0  0  0  0
  5  6  2  0  0  0  0
  5  7  1  0  0  0  0
  7  8  2  0  0  0  0
  8  9  1  0  0  0  0
  8 10  1  0  0  0  0
 10 11  2  0  0  0  0
 11 12  1  0  0  0  0
 11 13  1  0  0  0  0
 13 14  2  0  0  0  0
  7 14  1  0  0  0  0
  4 15  1  0  0  0  0
 15 16  2  0  0  0  0
 16 17  1  0  0  0  0
 17 18  1  0  0  0  0
 18 19  2  0  0  0  0
 15 19  1  0  0  0  0
 18 20  1  0  0  0  0
 20 21  2  0  0  0  0
 21 22  1  0  0  0  0
 22 23  2  0  0  0  0
 23 24  1  0  0  0  0
 24 25  2  0  0  0  0
 20 25  1  0  0  0  0
 16 26  1  0  0  0  0
 26 27  1  0  0  0  0
 26 28  2  0  0  0  0
M  END
> <DRUGBANK_ID>
DB03388

> <DRUG_GROUPS>
experimental

> <GENERIC_NAME>
3-[(2,4-Dichlorobenzoyl)(Isopropyl)Amino]-5-Phenylthiophene-2-Carboxylic Acid

> <CHEMICAL_FORMULA>
C21H17Cl2NO3S

> <MOLECULAR_WEIGHT>
434.336

> <EXACT_MASS>
433.030619519

> <IUPAC_NAME>
5-phenyl-3-[N-(propan-2-yl)(2,4-dichlorobenzene)amido]thiophene-2-carboxylic acid

> <IUPAC_TRADITIONAL_NAME>
3-[N-isopropyl(2,4-dichlorobenzene)amido]-5-phenylthiophene-2-carboxylic acid

> <INCHI_IDENTIFIER>
InChI=1S/C21H17Cl2NO3S/c1-12(2)24(20(25)15-9-8-14(22)10-16(15)23)17-11-18(28-19(17)21(26)27)13-6-4-3-5-7-13/h3-12H,1-2H3,(H,26,27)

> <INCHI_KEY>
InChIKey=UKNZREOUDLFUFF-UHFFFAOYSA-N

> <SMILES>
CC(C)N(C(=O)C1=C(Cl)C=C(Cl)C=C1)C1=C(SC(=C1)C1=CC=CC=C1)C(O)=O

> <JCHEM_ACCEPTOR_COUNT>
3

> <JCHEM_DONOR_COUNT>
1

> <JCHEM_ACIDIC_PKA>
3.56

> <JCHEM_BASIC_PKA>
-3.2

> <JCHEM_PHYSIOLOGICAL_CHARGE>
-1

> <ALOGPS_LOGP>
5.37

> <JCHEM_LOGP>
6.13

> <ALOGPS_LOGS>
-6.2

> <JCHEM_POLARIZABILITY>
42.65

> <JCHEM_POLAR_SURFACE_AREA>
57.61

> <JCHEM_REFRACTIVITY>
112.55

> <JCHEM_ROTATABLE_BOND_COUNT>
5

> <ALOGPS_SOLUBILITY>
2.76e-04 g/l __ 

$$$$
