
  Mrv0541 02231217162D          

  7  6  0  0  0  0            999 V2000
    1.2375    2.1434    0.0000 C   0  0  0  0  0  0  0  0  0  0  0  0
    0.8250    1.4289    0.0000 N   0  0  0  0  0  0  0  0  0  0  0  0
    1.2375    0.7145    0.0000 C   0  0  0  0  0  0  0  0  0  0  0  0
    2.0625    0.7145    0.0000 C   0  0  0  0  0  0  0  0  0  0  0  0
    0.8250    0.0000    0.0000 C   0  0  0  0  0  0  0  0  0  0  0  0
    1.2375   -0.7145    0.0000 O   0  0  0  0  0  0  0  0  0  0  0  0
    0.0000    0.0000    0.0000 O   0  0  0  0  0  0  0  0  0  0  0  0
  1  2  1  0  0  0  0
  2  3  1  0  0  0  0
  3  4  2  0  0  0  0
  3  5  1  0  0  0  0
  5  6  1  0  0  0  0
  5  7  2  0  0  0  0
M  END
> <DRUGBANK_ID>
DB03920

> <DRUG_GROUPS>
experimental

> <GENERIC_NAME>
N-Methyl-Alpha-Beta-Dehydroalanine

> <CHEMICAL_FORMULA>
C4H7NO2

> <MOLECULAR_WEIGHT>
101.1039

> <EXACT_MASS>
101.047678473

> <IUPAC_NAME>
2-(methylamino)prop-2-enoic acid

> <IUPAC_TRADITIONAL_NAME>
2-(methylamino)prop-2-enoic acid

> <INCHI_IDENTIFIER>
InChI=1S/C4H7NO2/c1-3(5-2)4(6)7/h5H,1H2,2H3,(H,6,7)

> <INCHI_KEY>
InChIKey=FLEYLGCAQDCGHN-UHFFFAOYSA-N

> <SMILES>
CNC(=C)C(O)=O

> <JCHEM_ACCEPTOR_COUNT>
3

> <JCHEM_DONOR_COUNT>
2

> <JCHEM_ACIDIC_PKA>
4.7

> <JCHEM_BASIC_PKA>
2.36

> <JCHEM_PHYSIOLOGICAL_CHARGE>
-1

> <ALOGPS_LOGP>
0.28

> <JCHEM_LOGP>
-0.19

> <ALOGPS_LOGS>
-0.01

> <JCHEM_POLARIZABILITY>
9.69

> <JCHEM_POLAR_SURFACE_AREA>
49.33

> <JCHEM_REFRACTIVITY>
25.69

> <JCHEM_ROTATABLE_BOND_COUNT>
2

> <ALOGPS_SOLUBILITY>
9.99e+01 g/l __ 

$$$$
