
  Mrv0541 02231216392D          

  8  8  0  0  1  0            999 V2000
   -0.1467    2.3518    0.0000 O   0  0  0  0  0  0  0  0  0  0  0  0
    0.5678    1.9393    0.0000 C   0  0  0  0  0  0  0  0  0  0  0  0
    1.2822    2.3518    0.0000 O   0  0  0  0  0  0  0  0  0  0  0  0
    0.5678    1.1143    0.0000 C   0  0  1  0  0  0  0  0  0  0  0  0
    1.2352    0.6294    0.0000 C   0  0  0  0  0  0  0  0  0  0  0  0
    0.9803   -0.1553    0.0000 C   0  0  0  0  0  0  0  0  0  0  0  0
    0.1553   -0.1553    0.0000 C   0  0  0  0  0  0  0  0  0  0  0  0
   -0.0997    0.6294    0.0000 O   0  0  0  0  0  0  0  0  0  0  0  0
  1  2  1  0  0  0  0
  2  3  2  0  0  0  0
  4  2  1  1  0  0  0
  4  5  1  0  0  0  0
  5  6  1  0  0  0  0
  6  7  1  0  0  0  0
  7  8  1  0  0  0  0
  4  8  1  0  0  0  0
M  END
> <DRUGBANK_ID>
DB03051

> <DRUG_GROUPS>
experimental

> <GENERIC_NAME>
Tetrahydrofuran-2-Carboxylic Acid

> <CHEMICAL_FORMULA>
C5H8O3

> <MOLECULAR_WEIGHT>
116.1152

> <EXACT_MASS>
116.047344122

> <IUPAC_NAME>
(2R)-oxolane-2-carboxylic acid

> <IUPAC_TRADITIONAL_NAME>
(2R)-oxolane-2-carboxylic acid

> <INCHI_IDENTIFIER>
InChI=1S/C5H8O3/c6-5(7)4-2-1-3-8-4/h4H,1-3H2,(H,6,7)/t4-/m1/s1

> <INCHI_KEY>
InChIKey=UJJLJRQIPMGXEZ-SCSAIBSYSA-N

> <SMILES>
OC(=O)[C@H]1CCCO1

> <JCHEM_ACCEPTOR_COUNT>
3

> <JCHEM_DONOR_COUNT>
1

> <JCHEM_ACIDIC_PKA>
3.83

> <JCHEM_BASIC_PKA>
-4.2

> <JCHEM_PHYSIOLOGICAL_CHARGE>
-1

> <ALOGPS_LOGP>
-0.03

> <JCHEM_LOGP>
0.22

> <ALOGPS_LOGS>
0.5

> <JCHEM_POLARIZABILITY>
10.97

> <JCHEM_POLAR_SURFACE_AREA>
46.53

> <JCHEM_REFRACTIVITY>
26.38

> <JCHEM_ROTATABLE_BOND_COUNT>
1

> <ALOGPS_SOLUBILITY>
3.64e+02 g/l __ 

$$$$
