
  Mrv0541 02231216382D          

 28 27  0  0  1  0            999 V2000
    7.2336    5.0013    0.0000 C   0  0  0  0  0  0  0  0  0  0  0  0
    7.9480    5.4138    0.0000 C   0  0  0  0  0  0  0  0  0  0  0  0
    8.6625    5.0013    0.0000 C   0  0  0  0  0  0  0  0  0  0  0  0
    9.3770    5.4138    0.0000 C   0  0  0  0  0  0  0  0  0  0  0  0
   10.0914    5.0013    0.0000 C   0  0  0  0  0  0  0  0  0  0  0  0
   10.8059    5.4138    0.0000 C   0  0  0  0  0  0  0  0  0  0  0  0
   11.5204    5.0013    0.0000 C   0  0  0  0  0  0  0  0  0  0  0  0
   12.2349    5.4138    0.0000 C   0  0  0  0  0  0  0  0  0  0  0  0
   12.9493    5.0013    0.0000 S   0  0  0  0  0  0  0  0  0  0  0  0
   13.6638    5.4138    0.0000 C   0  0  0  0  0  0  0  0  0  0  0  0
   14.3783    5.0013    0.0000 C   0  0  1  0  0  0  0  0  0  0  0  0
   15.0927    5.4138    0.0000 N   0  0  0  0  0  0  0  0  0  0  0  0
   15.8072    5.0013    0.0000 C   0  0  0  0  0  0  0  0  0  0  0  0
   15.8072    4.1763    0.0000 O   0  0  0  0  0  0  0  0  0  0  0  0
   16.5217    5.4138    0.0000 C   0  0  0  0  0  0  0  0  0  0  0  0
   17.2362    5.0013    0.0000 C   0  0  0  0  0  0  0  0  0  0  0  0
   17.9506    5.4138    0.0000 C   0  0  2  0  0  0  0  0  0  0  0  0
   17.9506    6.2388    0.0000 N   0  0  0  0  0  0  0  0  0  0  0  0
   18.6651    5.0013    0.0000 C   0  0  0  0  0  0  0  0  0  0  0  0
   19.3796    5.4138    0.0000 O   0  0  0  0  0  0  0  0  0  0  0  0
   18.6651    4.1763    0.0000 O   0  0  0  0  0  0  0  0  0  0  0  0
   14.3783    4.1763    0.0000 C   0  0  0  0  0  0  0  0  0  0  0  0
   13.6638    3.7638    0.0000 O   0  0  0  0  0  0  0  0  0  0  0  0
   15.0927    3.7638    0.0000 N   0  0  0  0  0  0  0  0  0  0  0  0
   15.0927    2.9388    0.0000 C   0  0  0  0  0  0  0  0  0  0  0  0
   15.8072    2.5263    0.0000 C   0  0  0  0  0  0  0  0  0  0  0  0
   16.5217    2.9388    0.0000 O   0  0  0  0  0  0  0  0  0  0  0  0
   15.8072    1.7013    0.0000 O   0  0  0  0  0  0  0  0  0  0  0  0
  1  2  1  0  0  0  0
  2  3  1  0  0  0  0
  3  4  1  0  0  0  0
  4  5  1  0  0  0  0
  5  6  1  0  0  0  0
  6  7  1  0  0  0  0
  7  8  1  0  0  0  0
  8  9  1  0  0  0  0
  9 10  1  0  0  0  0
 10 11  1  0  0  0  0
 11 12  1  1  0  0  0
 12 13  1  0  0  0  0
 13 14  2  0  0  0  0
 13 15  1  0  0  0  0
 15 16  1  0  0  0  0
 16 17  1  0  0  0  0
 17 18  1  6  0  0  0
 17 19  1  0  0  0  0
 19 20  1  0  0  0  0
 19 21  2  0  0  0  0
 11 22  1  0  0  0  0
 22 23  2  0  0  0  0
 22 24  1  0  0  0  0
 24 25  1  0  0  0  0
 25 26  1  0  0  0  0
 26 27  1  0  0  0  0
 26 28  2  0  0  0  0
M  END
> <DRUGBANK_ID>
DB03032

> <DRUG_GROUPS>
experimental

> <GENERIC_NAME>
S-Octylglutathione

> <CHEMICAL_FORMULA>
C18H33N3O6S

> <MOLECULAR_WEIGHT>
419.536

> <EXACT_MASS>
419.209006493

> <IUPAC_NAME>
(2S)-2-amino-4-{[(1S)-1-[(carboxymethyl)carbamoyl]-2-(octylsulfanyl)ethyl]carbamoyl}butanoic acid

> <IUPAC_TRADITIONAL_NAME>
(2S)-2-amino-4-{[(1S)-1-(carboxymethylcarbamoyl)-2-(octylsulfanyl)ethyl]carbamoyl}butanoic acid

> <INCHI_IDENTIFIER>
InChI=1S/C18H33N3O6S/c1-2-3-4-5-6-7-10-28-12-14(17(25)20-11-16(23)24)21-15(22)9-8-13(19)18(26)27/h13-14H,2-12,19H2,1H3,(H,20,25)(H,21,22)(H,23,24)(H,26,27)/t13-,14+/m0/s1

> <INCHI_KEY>
InChIKey=MJWCZWAVSJZQNL-UONOGXRCSA-N

> <SMILES>
CCCCCCCCSC[C@@H](NC(=O)CC[C@H](N)C(O)=O)C(=O)NCC(O)=O

> <JCHEM_ACCEPTOR_COUNT>
7

> <JCHEM_DONOR_COUNT>
5

> <JCHEM_ACIDIC_PKA>
1.81

> <JCHEM_BASIC_PKA>
9.31

> <JCHEM_PHYSIOLOGICAL_CHARGE>
-1

> <ALOGPS_LOGP>
-0.83

> <JCHEM_LOGP>
-1.5

> <ALOGPS_LOGS>
-4.1

> <JCHEM_POLARIZABILITY>
46.38

> <JCHEM_POLAR_SURFACE_AREA>
158.82

> <JCHEM_REFRACTIVITY>
106.09

> <JCHEM_ROTATABLE_BOND_COUNT>
17

> <ALOGPS_SOLUBILITY>
3.41e-02 g/l __ 

$$$$
