
  Mrv0541 02231216552D          

  8  8  0  0  0  0            999 V2000
    0.2047    2.4937    0.0000 O   0  0  0  0  0  0  0  0  0  0  0  0
    0.7881    1.9103    0.0000 C   0  0  0  0  0  0  0  0  0  0  0  0
    1.5849    2.1238    0.0000 O   0  0  0  0  0  0  0  0  0  0  0  0
    0.5746    1.1134    0.0000 C   0  0  0  0  0  0  0  0  0  0  0  0
    1.0937    0.4723    0.0000 C   0  0  0  0  0  0  0  0  0  0  0  0
    0.6444   -0.2197    0.0000 S   0  0  0  0  0  0  0  0  0  0  0  0
   -0.1525   -0.0062    0.0000 C   0  0  0  0  0  0  0  0  0  0  0  0
   -0.1957    0.8178    0.0000 N   0  0  0  0  0  0  0  0  0  0  0  0
  1  2  1  0  0  0  0
  2  3  2  0  0  0  0
  2  4  1  0  0  0  0
  4  5  2  0  0  0  0
  5  6  1  0  0  0  0
  6  7  1  0  0  0  0
  7  8  2  0  0  0  0
  4  8  1  0  0  0  0
M  END
> <DRUGBANK_ID>
DB03422

> <DRUG_GROUPS>
experimental

> <GENERIC_NAME>
1,3-Thiazole-4-Carboxylic Acid

> <CHEMICAL_FORMULA>
C4H3NO2S

> <MOLECULAR_WEIGHT>
129.137

> <EXACT_MASS>
128.988449035

> <IUPAC_NAME>
1,3-thiazole-4-carboxylic acid

> <IUPAC_TRADITIONAL_NAME>
1,3-thiazole-4-carboxylic acid

> <INCHI_IDENTIFIER>
InChI=1S/C4H3NO2S/c6-4(7)3-1-8-2-5-3/h1-2H,(H,6,7)

> <INCHI_KEY>
InChIKey=HMVYYTRDXNKRBQ-UHFFFAOYSA-N

> <SMILES>
OC(=O)C1=CSC=N1

> <JCHEM_ACCEPTOR_COUNT>
3

> <JCHEM_DONOR_COUNT>
1

> <JCHEM_ACIDIC_PKA>
3.18

> <JCHEM_BASIC_PKA>
0.059

> <JCHEM_PHYSIOLOGICAL_CHARGE>
-1

> <ALOGPS_LOGP>
0.56

> <JCHEM_LOGP>
0.68

> <ALOGPS_LOGS>
-1.6

> <JCHEM_POLARIZABILITY>
11.08

> <JCHEM_POLAR_SURFACE_AREA>
50.19

> <JCHEM_REFRACTIVITY>
28.15

> <JCHEM_ROTATABLE_BOND_COUNT>
1

> <ALOGPS_SOLUBILITY>
3.39e+00 g/l __ 

$$$$
