
  Mrv0541 02231217122D          

  8  7  0  0  1  0            999 V2000
   -0.1914    0.7145    0.0000 N   0  0  0  0  0  0  0  0  0  0  0  0
    0.5230    1.1270    0.0000 C   0  0  0  0  0  0  0  0  0  0  0  0
    1.2375    0.7145    0.0000 C   0  0  0  0  0  0  0  0  0  0  0  0
    1.9520    1.1270    0.0000 C   0  0  2  0  0  0  0  0  0  0  0  0
    1.9520    1.9520    0.0000 N   0  0  0  0  0  0  0  0  0  0  0  0
    2.6664    0.7145    0.0000 C   0  0  0  0  0  0  0  0  0  0  0  0
    3.3809    1.1270    0.0000 O   0  0  0  0  0  0  0  0  0  0  0  0
    2.6664   -0.1105    0.0000 O   0  0  0  0  0  0  0  0  0  0  0  0
  1  2  1  0  0  0  0
  2  3  1  0  0  0  0
  3  4  1  0  0  0  0
  4  5  1  6  0  0  0
  4  6  1  0  0  0  0
  6  7  1  0  0  0  0
  6  8  2  0  0  0  0
M  END
> <DRUGBANK_ID>
DB03817

> <DRUG_GROUPS>
experimental

> <GENERIC_NAME>
2,4-Diaminobutyric Acid

> <SYNONYMS>


> <CHEMICAL_FORMULA>
C4H10N2O2

> <MOLECULAR_WEIGHT>
118.1344

> <EXACT_MASS>
118.074227574

> <IUPAC_NAME>
(2S)-2,4-diaminobutanoic acid

> <IUPAC_TRADITIONAL_NAME>
2,4-diaminobutyric acid

> <INCHI_IDENTIFIER>
InChI=1S/C4H10N2O2/c5-2-1-3(6)4(7)8/h3H,1-2,5-6H2,(H,7,8)/t3-/m0/s1

> <INCHI_KEY>
InChIKey=OGNSCSPNOLGXSM-VKHMYHEASA-N

> <SMILES>
NCC[C@H](N)C(O)=O

> <JCHEM_ACCEPTOR_COUNT>
4

> <JCHEM_DONOR_COUNT>
3

> <JCHEM_ACIDIC_PKA>
2.55

> <JCHEM_BASIC_PKA>
10.25

> <JCHEM_PHYSIOLOGICAL_CHARGE>
1

> <ALOGPS_LOGP>
-3.7

> <JCHEM_LOGP>
-4

> <ALOGPS_LOGS>
0.36

> <JCHEM_POLARIZABILITY>
11.89

> <JCHEM_POLAR_SURFACE_AREA>
89.34

> <JCHEM_REFRACTIVITY>
28.56

> <JCHEM_ROTATABLE_BOND_COUNT>
3

> <ALOGPS_SOLUBILITY>
2.70e+02 g/l __ 

$$$$
