
  Mrv0541 02231217182D          

 20 22  0  0  1  0            999 V2000
   -0.6955    3.4867    0.0000 C   0  0  0  0  0  0  0  0  0  0  0  0
   -0.1435    2.8736    0.0000 C   0  0  2  0  0  0  0  0  0  0  0  0
    0.6635    3.0451    0.0000 O   0  0  0  0  0  0  0  0  0  0  0  0
   -0.3984    2.0890    0.0000 C   0  0  2  0  0  0  0  0  0  0  0  0
    0.0865    1.4216    0.0000 O   0  0  0  0  0  0  0  0  0  0  0  0
   -0.3984    0.7541    0.0000 C   0  0  2  0  0  0  0  0  0  0  0  0
   -1.1831    1.0091    0.0000 C   0  0  2  0  0  0  0  0  0  0  0  0
   -1.8505    0.5241    0.0000 O   0  0  0  0  0  0  0  0  0  0  0  0
   -1.1831    1.8341    0.0000 C   0  0  1  0  0  0  0  0  0  0  0  0
   -1.8505    2.3190    0.0000 O   0  0  0  0  0  0  0  0  0  0  0  0
   -0.1435   -0.0305    0.0000 N   0  0  0  0  0  0  0  0  0  0  0  0
   -0.6284   -0.6979    0.0000 C   0  0  0  0  0  0  0  0  0  0  0  0
   -0.1435   -1.3654    0.0000 N   0  0  0  0  0  0  0  0  0  0  0  0
    0.6411   -1.1104    0.0000 C   0  0  0  0  0  0  0  0  0  0  0  0
    0.6411   -0.2854    0.0000 C   0  0  0  0  0  0  0  0  0  0  0  0
    1.3556    0.1271    0.0000 N   0  0  0  0  0  0  0  0  0  0  0  0
    2.0701   -0.2854    0.0000 C   0  0  0  0  0  0  0  0  0  0  0  0
    2.0701   -1.1104    0.0000 N   0  0  0  0  0  0  0  0  0  0  0  0
    1.3556   -1.5229    0.0000 C   0  0  0  0  0  0  0  0  0  0  0  0
    1.3556   -2.3479    0.0000 C   0  0  0  0  0  0  0  0  0  0  0  0
  1  2  1  0  0  0  0
  2  3  1  6  0  0  0
  4  2  1  6  0  0  0
  4  5  1  0  0  0  0
  5  6  1  0  0  0  0
  6  7  1  0  0  0  0
  7  8  1  6  0  0  0
  7  9  1  0  0  0  0
  4  9  1  0  0  0  0
  9 10  1  1  0  0  0
  6 11  1  1  0  0  0
 11 12  1  0  0  0  0
 12 13  2  0  0  0  0
 13 14  1  0  0  0  0
 14 15  2  0  0  0  0
 11 15  1  0  0  0  0
 15 16  1  0  0  0  0
 16 17  2  0  0  0  0
 17 18  1  0  0  0  0
 18 19  2  0  0  0  0
 14 19  1  0  0  0  0
 19 20  1  0  0  0  0
M  END
> <DRUGBANK_ID>
DB03952

> <DRUG_GROUPS>
experimental

> <GENERIC_NAME>
9-(6-Deoxy-Beta-D-Allofuranosyl)-6-Methylpurine

> <CHEMICAL_FORMULA>
C12H16N4O4

> <MOLECULAR_WEIGHT>
280.2798

> <EXACT_MASS>
280.11715502

> <IUPAC_NAME>
(2S,3R,4R,5R)-2-[(1S)-1-hydroxyethyl]-5-(6-methyl-9H-purin-9-yl)oxolane-3,4-diol

> <IUPAC_TRADITIONAL_NAME>
(2S,3R,4R,5R)-2-[(1S)-1-hydroxyethyl]-5-(6-methylpurin-9-yl)oxolane-3,4-diol

> <INCHI_IDENTIFIER>
InChI=1S/C12H16N4O4/c1-5-7-11(14-3-13-5)16(4-15-7)12-9(19)8(18)10(20-12)6(2)17/h3-4,6,8-10,12,17-19H,1-2H3/t6-,8+,9+,10-,12+/m0/s1

> <INCHI_KEY>
InChIKey=XJZDIUOABWMPLZ-DLOONRPBSA-N

> <SMILES>
C[C@H](O)[C@@H]1O[C@H]([C@H](O)[C@H]1O)N1C=NC2=C1N=CN=C2C

> <JCHEM_ACCEPTOR_COUNT>
7

> <JCHEM_DONOR_COUNT>
3

> <JCHEM_ACIDIC_PKA>
12.45

> <JCHEM_BASIC_PKA>
4.22

> <JCHEM_PHYSIOLOGICAL_CHARGE>
0

> <ALOGPS_LOGP>
-0.34

> <JCHEM_LOGP>
-1.3

> <ALOGPS_LOGS>
-1.5

> <JCHEM_POLARIZABILITY>
27.58

> <JCHEM_POLAR_SURFACE_AREA>
113.52

> <JCHEM_REFRACTIVITY>
67.19

> <JCHEM_ROTATABLE_BOND_COUNT>
2

> <ALOGPS_SOLUBILITY>
8.73e+00 g/l __ 

$$$$
