
  Mrv0541 02231216422D          

 10  9  0  0  0  0            999 V2000
    1.7605   -1.8414    0.0000 C   0  0  0  0  0  0  0  0  0  0  0  0
    2.4750   -1.4289    0.0000 C   0  0  0  0  0  0  0  0  0  0  0  0
    2.4750   -0.6039    0.0000 O   0  0  0  0  0  0  0  0  0  0  0  0
    3.1895   -1.8414    0.0000 O   0  0  0  0  0  0  0  0  0  0  0  0
    3.9039   -1.4289    0.0000 C   0  0  0  0  0  0  0  0  0  0  0  0
    4.6184   -1.8414    0.0000 C   0  0  0  0  0  0  0  0  0  0  0  0
    5.3329   -1.4289    0.0000 N   0  3  0  0  0  0  0  0  0  0  0  0
    6.0474   -1.0164    0.0000 C   0  0  0  0  0  0  0  0  0  0  0  0
    5.7454   -2.1434    0.0000 C   0  0  0  0  0  0  0  0  0  0  0  0
    4.9204   -0.7145    0.0000 C   0  0  0  0  0  0  0  0  0  0  0  0
  1  2  1  0  0  0  0
  2  3  2  0  0  0  0
  2  4  1  0  0  0  0
  4  5  1  0  0  0  0
  5  6  1  0  0  0  0
  6  7  1  0  0  0  0
  7  8  1  0  0  0  0
  7  9  1  0  0  0  0
  7 10  1  0  0  0  0
M  END
> <DRUGBANK_ID>
DB03128

> <DRUG_GROUPS>
experimental

> <GENERIC_NAME>
Acetylcholine

> <SYNONYMS>


> <CHEMICAL_FORMULA>
C7H16NO2

> <MOLECULAR_WEIGHT>
146.2074

> <EXACT_MASS>
146.118103761

> <IUPAC_NAME>
[2-(acetyloxy)ethyl]trimethylazanium

> <IUPAC_TRADITIONAL_NAME>
acetylcholine

> <INCHI_IDENTIFIER>
InChI=1S/C7H16NO2/c1-7(9)10-6-5-8(2,3)4/h5-6H2,1-4H3/q+1

> <INCHI_KEY>
InChIKey=OIPILFWXSMYKGL-UHFFFAOYSA-N

> <SMILES>
CC(=O)OCC[N+](C)(C)C

> <JCHEM_ACCEPTOR_COUNT>
1

> <JCHEM_DONOR_COUNT>
0

> <JCHEM_BASIC_PKA>
-7

> <JCHEM_PHYSIOLOGICAL_CHARGE>
1

> <ALOGPS_LOGP>
-2.9

> <JCHEM_LOGP>
-4.2

> <ALOGPS_LOGS>
-3.1

> <JCHEM_POLARIZABILITY>
16.69

> <JCHEM_POLAR_SURFACE_AREA>
26.3

> <JCHEM_REFRACTIVITY>
51.35

> <JCHEM_ROTATABLE_BOND_COUNT>
4

> <ALOGPS_SOLUBILITY>
1.36e-01 g/l __ 

$$$$
