
  Mrv0541 02231217192D          

 13 12  0  0  1  0            999 V2000
    7.2849    3.3809    0.0000 N   0  0  0  0  0  0  0  0  0  0  0  0
    7.2849    2.5559    0.0000 C   0  0  1  0  0  0  0  0  0  0  0  0
    6.5704    2.1434    0.0000 C   0  0  0  0  0  0  0  0  0  0  0  0
    5.8559    2.5559    0.0000 C   0  0  0  0  0  0  0  0  0  0  0  0
    5.1414    2.1434    0.0000 C   0  0  0  0  0  0  0  0  0  0  0  0
    4.4270    2.5559    0.0000 C   0  0  0  0  0  0  0  0  0  0  0  0
    3.7125    2.1434    0.0000 N   0  0  0  0  0  0  0  0  0  0  0  0
    2.9980    2.5559    0.0000 C   0  0  0  0  0  0  0  0  0  0  0  0
    2.2836    2.1434    0.0000 N   0  3  0  0  0  0  0  0  0  0  0  0
    2.9980    3.3809    0.0000 N   0  0  0  0  0  0  0  0  0  0  0  0
    7.9993    2.1434    0.0000 C   0  0  0  0  0  0  0  0  0  0  0  0
    8.7138    2.5559    0.0000 O   0  0  0  0  0  0  0  0  0  0  0  0
    7.9993    1.3184    0.0000 O   0  0  0  0  0  0  0  0  0  0  0  0
  2  1  1  6  0  0  0
  2  3  1  0  0  0  0
  3  4  1  0  0  0  0
  4  5  1  0  0  0  0
  5  6  1  0  0  0  0
  6  7  1  0  0  0  0
  7  8  1  0  0  0  0
  8  9  1  0  0  0  0
  8 10  2  0  0  0  0
  2 11  1  0  0  0  0
 11 12  1  0  0  0  0
 11 13  2  0  0  0  0
M  END
> <DRUGBANK_ID>
DB03974

> <DRUG_GROUPS>
experimental

> <GENERIC_NAME>
L-Homoarginine

> <CHEMICAL_FORMULA>
C7H17N4O2

> <MOLECULAR_WEIGHT>
189.2355

> <EXACT_MASS>
189.135150808

> <IUPAC_NAME>
(2S)-2-amino-6-[(azaniumylmethanimidoyl)amino]hexanoic acid

> <IUPAC_TRADITIONAL_NAME>
L-homoarginine

> <INCHI_IDENTIFIER>
InChI=1S/C7H16N4O2/c8-5(6(12)13)3-1-2-4-11-7(9)10/h5H,1-4,8H2,(H,12,13)(H4,9,10,11)/p+1/t5-/m0/s1

> <INCHI_KEY>
InChIKey=QUOGESRFPZDMMT-YFKPBYRVSA-O

> <SMILES>
N[C@@H](CCCCNC([NH3+])=N)C(O)=O

> <JCHEM_ACCEPTOR_COUNT>
5

> <JCHEM_DONOR_COUNT>
5

> <JCHEM_ACIDIC_PKA>
2.49

> <JCHEM_BASIC_PKA>
12.3

> <JCHEM_PHYSIOLOGICAL_CHARGE>
1

> <ALOGPS_LOGP>
-2.7

> <JCHEM_LOGP>
-2.7

> <ALOGPS_LOGS>
-2.5

> <JCHEM_POLARIZABILITY>
20.48

> <JCHEM_POLAR_SURFACE_AREA>
126.84

> <JCHEM_REFRACTIVITY>
69.82

> <JCHEM_ROTATABLE_BOND_COUNT>
6

> <ALOGPS_SOLUBILITY>
6.91e-01 g/l __ 

$$$$
