
  Mrv0541 02231217192D          

 10 10  0  0  0  0            999 V2000
    1.4289   -1.6500    0.0000 O    0  0  0  0  0  0  0  0  0  0  0  0
    0.7145   -1.2375    0.0000 C    0  0  0  0  0  0  0  0  0  0  0  0
    0.0000   -1.6500    0.0000 O    0  0  0  0  0  0  0  0  0  0  0  0
    0.7145   -0.4125    0.0000 C    0  0  0  0  0  0  0  0  0  0  0  0
    0.0000    0.0000    0.0000 C    0  0  0  0  0  0  0  0  0  0  0  0
    0.0000    0.8250    0.0000 C    0  0  0  0  0  0  0  0  0  0  0  0
    0.7145    1.2375    0.0000 C    0  0  0  0  0  0  0  0  0  0  0  0
    0.7145    2.0625    0.0000 Hg   0  0  0  0  0  0  0  0  0  0  0  0
    1.4289    0.8250    0.0000 C    0  0  0  0  0  0  0  0  0  0  0  0
    1.4289    0.0000    0.0000 C    0  0  0  0  0  0  0  0  0  0  0  0
  1  2  1  0  0  0  0
  2  3  2  0  0  0  0
  2  4  1  0  0  0  0
  4  5  2  0  0  0  0
  5  6  1  0  0  0  0
  6  7  2  0  0  0  0
  7  8  1  0  0  0  0
  7  9  1  0  0  0  0
  9 10  2  0  0  0  0
  4 10  1  0  0  0  0
M  END
> <DRUGBANK_ID>
DB03975

> <DRUG_GROUPS>
experimental

> <GENERIC_NAME>
Mercuribenzoic Acid

> <CHEMICAL_FORMULA>
C7H5HgO2

> <MOLECULAR_WEIGHT>
321.7

> <EXACT_MASS>
322.999580008

> <IUPAC_NAME>
(4-carboxyphenyl)mercury

> <IUPAC_TRADITIONAL_NAME>
mercuribenzoic acid

> <INCHI_IDENTIFIER>
InChI=1S/C7H5O2.Hg/c8-7(9)6-4-2-1-3-5-6;/h2-5H,(H,8,9);

> <INCHI_KEY>
InChIKey=FVFZSVRSDNUCGG-UHFFFAOYSA-N

> <SMILES>
OC(=O)C1=CC=C([Hg])C=C1

> <JCHEM_ACCEPTOR_COUNT>
2

> <JCHEM_DONOR_COUNT>
1

> <JCHEM_ACIDIC_PKA>
4.02

> <JCHEM_PHYSIOLOGICAL_CHARGE>
-1

> <ALOGPS_LOGP>
0.56

> <JCHEM_LOGP>
0.42

> <ALOGPS_LOGS>
-0.83

> <JCHEM_POLARIZABILITY>
13.92

> <JCHEM_POLAR_SURFACE_AREA>
37.3

> <JCHEM_REFRACTIVITY>
32.73

> <JCHEM_ROTATABLE_BOND_COUNT>
1

> <ALOGPS_SOLUBILITY>
4.77e+01 g/l __ 

$$$$
