
  Mrv0541 02231217152D          

 31 32  0  0  1  0            999 V2000
    3.3362    5.9407    0.0000 N   0  0  0  0  0  0  0  0  0  0  0  0
    2.7961    5.3171    0.0000 C   0  0  1  0  0  0  0  0  0  0  0  0
    1.9860    5.4730    0.0000 C   0  0  0  0  0  0  0  0  0  0  0  0
    1.7159    6.2525    0.0000 C   0  0  0  0  0  0  0  0  0  0  0  0
    0.9058    6.4084    0.0000 C   0  0  0  0  0  0  0  0  0  0  0  0
    0.3657    5.7848    0.0000 O   0  0  0  0  0  0  0  0  0  0  0  0
    0.6358    7.1880    0.0000 N   0  0  0  0  0  0  0  0  0  0  0  0
   -0.1744    7.3439    0.0000 C   0  0  2  0  0  0  0  0  0  0  0  0
   -0.4444    8.1234    0.0000 C   0  0  0  0  0  0  0  0  0  0  0  0
   -1.2546    8.2793    0.0000 S   0  0  0  0  0  0  0  0  0  0  0  0
   -1.5246    9.0589    0.0000 C   0  0  0  0  0  0  0  0  0  0  0  0
   -2.3347    9.2148    0.0000 C   0  0  0  0  0  0  0  0  0  0  0  0
   -2.6048    9.9944    0.0000 C   0  0  0  0  0  0  0  0  0  0  0  0
   -3.4149   10.1503    0.0000 C   0  0  0  0  0  0  0  0  0  0  0  0
   -3.9550    9.5266    0.0000 C   0  0  0  0  0  0  0  0  0  0  0  0
   -3.6850    8.7471    0.0000 C   0  0  0  0  0  0  0  0  0  0  0  0
   -2.8748    8.5912    0.0000 C   0  0  0  0  0  0  0  0  0  0  0  0
   -2.6048    7.8116    0.0000 C   0  0  0  0  0  0  0  0  0  0  0  0
   -3.1449    7.1880    0.0000 C   0  0  0  0  0  0  0  0  0  0  0  0
   -3.9550    7.3439    0.0000 C   0  0  0  0  0  0  0  0  0  0  0  0
   -4.2251    8.1234    0.0000 C   0  0  0  0  0  0  0  0  0  0  0  0
   -0.7145    6.7202    0.0000 C   0  0  0  0  0  0  0  0  0  0  0  0
   -1.5246    6.8762    0.0000 O   0  0  0  0  0  0  0  0  0  0  0  0
   -0.4444    5.9407    0.0000 N   0  0  0  0  0  0  0  0  0  0  0  0
   -0.9845    5.3171    0.0000 C   0  0  0  0  0  0  0  0  0  0  0  0
   -0.7145    4.5375    0.0000 C   0  0  0  0  0  0  0  0  0  0  0  0
    0.0957    4.3816    0.0000 O   0  0  0  0  0  0  0  0  0  0  0  0
   -1.2546    3.9139    0.0000 O   0  0  0  0  0  0  0  0  0  0  0  0
    3.0662    4.5375    0.0000 C   0  0  0  0  0  0  0  0  0  0  0  0
    3.8763    4.3816    0.0000 O   0  0  0  0  0  0  0  0  0  0  0  0
    2.5261    3.9139    0.0000 O   0  0  0  0  0  0  0  0  0  0  0  0
  2  1  1  6  0  0  0
  2  3  1  0  0  0  0
  3  4  1  0  0  0  0
  4  5  1  0  0  0  0
  5  6  2  0  0  0  0
  5  7  1  0  0  0  0
  8  7  1  1  0  0  0
  8  9  1  0  0  0  0
  9 10  1  0  0  0  0
 10 11  1  0  0  0  0
 11 12  1  0  0  0  0
 12 13  2  0  0  0  0
 13 14  1  0  0  0  0
 14 15  2  0  0  0  0
 15 16  1  0  0  0  0
 16 17  2  0  0  0  0
 12 17  1  0  0  0  0
 17 18  1  0  0  0  0
 18 19  2  0  0  0  0
 19 20  1  0  0  0  0
 20 21  2  0  0  0  0
 16 21  1  0  0  0  0
  8 22  1  0  0  0  0
 22 23  2  0  0  0  0
 22 24  1  0  0  0  0
 24 25  1  0  0  0  0
 25 26  1  0  0  0  0
 26 27  1  0  0  0  0
 26 28  2  0  0  0  0
  2 29  1  0  0  0  0
 29 30  1  0  0  0  0
 29 31  2  0  0  0  0
M  END
> <DRUGBANK_ID>
DB03885

> <DRUG_GROUPS>
experimental

> <GENERIC_NAME>
1-Menaphthyl Glutathione Conjugate

> <CHEMICAL_FORMULA>
C21H25N3O6S

> <MOLECULAR_WEIGHT>
447.505

> <EXACT_MASS>
447.146406237

> <IUPAC_NAME>
(2S)-2-amino-4-{[(1S)-1-[(carboxymethyl)carbamoyl]-2-[(naphthalen-1-ylmethyl)sulfanyl]ethyl]carbamoyl}butanoic acid

> <IUPAC_TRADITIONAL_NAME>
(2S)-2-amino-4-{[(1S)-1-(carboxymethylcarbamoyl)-2-[(naphthalen-1-ylmethyl)sulfanyl]ethyl]carbamoyl}butanoic acid

> <INCHI_IDENTIFIER>
InChI=1S/C21H25N3O6S/c22-16(21(29)30)8-9-18(25)24-17(20(28)23-10-19(26)27)12-31-11-14-6-3-5-13-4-1-2-7-15(13)14/h1-7,16-17H,8-12,22H2,(H,23,28)(H,24,25)(H,26,27)(H,29,30)/t16-,17+/m0/s1

> <INCHI_KEY>
InChIKey=IHZCIRSQSFPOLH-DLBZAZTESA-N

> <SMILES>
N[C@@H](CCC(=O)N[C@H](CSCC1=CC=CC2=C1C=CC=C2)C(=O)NCC(O)=O)C(O)=O

> <JCHEM_ACCEPTOR_COUNT>
7

> <JCHEM_DONOR_COUNT>
5

> <JCHEM_ACIDIC_PKA>
1.81

> <JCHEM_BASIC_PKA>
9.31

> <JCHEM_PHYSIOLOGICAL_CHARGE>
-1

> <ALOGPS_LOGP>
-0.98

> <JCHEM_LOGP>
-1.9

> <ALOGPS_LOGS>
-4.6

> <JCHEM_POLARIZABILITY>
46.07

> <JCHEM_POLAR_SURFACE_AREA>
158.82

> <JCHEM_REFRACTIVITY>
114.88

> <JCHEM_ROTATABLE_BOND_COUNT>
12

> <ALOGPS_SOLUBILITY>
1.04e-02 g/l __ 

$$$$
