
  Mrv0541 02231216552D          

 13 13  0  0  1  0            999 V2000
    2.1434    2.0625    0.0000 C   0  0  0  0  0  0  0  0  0  0  0  0
    2.1434    1.2375    0.0000 O   0  0  0  0  0  0  0  0  0  0  0  0
    1.4289    0.8250    0.0000 C   0  0  1  0  0  0  0  0  0  0  0  0
    1.4289    0.0000    0.0000 O   0  0  0  0  0  0  0  0  0  0  0  0
    0.7145   -0.4125    0.0000 C   0  0  1  0  0  0  0  0  0  0  0  0
    0.7145   -1.2375    0.0000 C   0  0  0  0  0  0  0  0  0  0  0  0
    1.4289   -1.6500    0.0000 O   0  0  0  0  0  0  0  0  0  0  0  0
    0.0000    0.0000    0.0000 C   0  0  2  0  0  0  0  0  0  0  0  0
   -0.7145   -0.4125    0.0000 S   0  0  0  0  0  0  0  0  0  0  0  0
    0.0000    0.8250    0.0000 C   0  0  1  0  0  0  0  0  0  0  0  0
   -0.7145    1.2375    0.0000 O   0  0  0  0  0  0  0  0  0  0  0  0
    0.7145    1.2375    0.0000 C   0  0  2  0  0  0  0  0  0  0  0  0
    0.7145    2.0625    0.0000 O   0  0  0  0  0  0  0  0  0  0  0  0
  1  2  1  0  0  0  0
  3  2  1  1  0  0  0
  3  4  1  0  0  0  0
  4  5  1  0  0  0  0
  5  6  1  1  0  0  0
  6  7  1  0  0  0  0
  5  8  1  0  0  0  0
  8  9  1  6  0  0  0
  8 10  1  0  0  0  0
 10 11  1  1  0  0  0
 10 12  1  0  0  0  0
  3 12  1  0  0  0  0
 12 13  1  6  0  0  0
M  END
> <DRUGBANK_ID>
DB03406

> <DRUG_GROUPS>
experimental

> <GENERIC_NAME>
O1-Methyl-4-Deoxy-4-Thio-Alpha-D-Glucose

> <CHEMICAL_FORMULA>
C7H14O5S

> <MOLECULAR_WEIGHT>
210.248

> <EXACT_MASS>
210.056194248

> <IUPAC_NAME>
(2S,3S,4S,5R,6S)-6-(hydroxymethyl)-2-methoxy-5-sulfanyloxane-3,4-diol

> <IUPAC_TRADITIONAL_NAME>
(2S,3S,4S,5R,6S)-6-(hydroxymethyl)-2-methoxy-5-sulfanyloxane-3,4-diol

> <INCHI_IDENTIFIER>
InChI=1S/C7H14O5S/c1-11-7-5(10)4(9)6(13)3(2-8)12-7/h3-10,13H,2H2,1H3/t3-,4-,5-,6-,7-/m0/s1

> <INCHI_KEY>
InChIKey=PFROTWRHYMLGHR-RRNSMKEASA-N

> <SMILES>
CO[C@H]1O[C@@H](CO)[C@H](S)[C@@H](O)[C@@H]1O

> <JCHEM_ACCEPTOR_COUNT>
5

> <JCHEM_DONOR_COUNT>
4

> <JCHEM_ACIDIC_PKA>
9.5

> <JCHEM_BASIC_PKA>
-3

> <JCHEM_PHYSIOLOGICAL_CHARGE>
0

> <ALOGPS_LOGP>
-0.79

> <JCHEM_LOGP>
-1.3

> <ALOGPS_LOGS>
-0.71

> <JCHEM_POLARIZABILITY>
20.36

> <JCHEM_POLAR_SURFACE_AREA>
79.15

> <JCHEM_REFRACTIVITY>
46.88

> <JCHEM_ROTATABLE_BOND_COUNT>
2

> <ALOGPS_SOLUBILITY>
4.06e+01 g/l __ 

$$$$
