
  Mrv0541 02231216372D          

 14 15  0  0  1  0            999 V2000
   -1.4604    1.7103    0.0000 C   0  0  0  0  0  0  0  0  0  0  0  0
   -1.2054    0.9256    0.0000 C   0  0  1  0  0  0  0  0  0  0  0  0
   -1.7575    0.3126    0.0000 O   0  0  0  0  0  0  0  0  0  0  0  0
   -0.3984    0.7541    0.0000 C   0  0  0  0  0  0  0  0  0  0  0  0
   -0.1435   -0.0305    0.0000 N   0  0  0  0  0  0  0  0  0  0  0  0
   -0.6284   -0.6979    0.0000 C   0  0  0  0  0  0  0  0  0  0  0  0
   -0.1435   -1.3654    0.0000 N   0  0  0  0  0  0  0  0  0  0  0  0
    0.6411   -1.1104    0.0000 C   0  0  0  0  0  0  0  0  0  0  0  0
    0.6411   -0.2854    0.0000 C   0  0  0  0  0  0  0  0  0  0  0  0
    1.3556    0.1271    0.0000 N   0  0  0  0  0  0  0  0  0  0  0  0
    2.0701   -0.2854    0.0000 C   0  0  0  0  0  0  0  0  0  0  0  0
    2.0701   -1.1104    0.0000 N   0  0  0  0  0  0  0  0  0  0  0  0
    1.3556   -1.5229    0.0000 C   0  0  0  0  0  0  0  0  0  0  0  0
    1.3556   -2.3479    0.0000 N   0  0  0  0  0  0  0  0  0  0  0  0
  1  2  1  0  0  0  0
  2  3  1  6  0  0  0
  2  4  1  0  0  0  0
  4  5  1  0  0  0  0
  5  6  1  0  0  0  0
  6  7  2  0  0  0  0
  7  8  1  0  0  0  0
  8  9  2  0  0  0  0
  5  9  1  0  0  0  0
  9 10  1  0  0  0  0
 10 11  2  0  0  0  0
 11 12  1  0  0  0  0
 12 13  2  0  0  0  0
  8 13  1  0  0  0  0
 13 14  1  0  0  0  0
M  END
> <DRUGBANK_ID>
DB03000

> <DRUG_GROUPS>
experimental

> <GENERIC_NAME>
9-Hydroxypropyladenine, S-Isomer

> <CHEMICAL_FORMULA>
C8H11N5O

> <MOLECULAR_WEIGHT>
193.2058

> <EXACT_MASS>
193.096359999

> <IUPAC_NAME>
(2R)-1-(6-amino-9H-purin-9-yl)propan-2-ol

> <IUPAC_TRADITIONAL_NAME>
(2R)-1-(6-aminopurin-9-yl)propan-2-ol

> <INCHI_IDENTIFIER>
InChI=1S/C8H11N5O/c1-5(14)2-13-4-12-6-7(9)10-3-11-8(6)13/h3-5,14H,2H2,1H3,(H2,9,10,11)/t5-/m1/s1

> <INCHI_KEY>
InChIKey=MJZYTEBKXLVLMY-RXMQYKEDSA-N

> <SMILES>
C[C@@H](O)CN1C=NC2=C1N=CN=C2N

> <JCHEM_ACCEPTOR_COUNT>
5

> <JCHEM_DONOR_COUNT>
2

> <JCHEM_ACIDIC_PKA>
15.17

> <JCHEM_BASIC_PKA>
5.12

> <JCHEM_PHYSIOLOGICAL_CHARGE>
0

> <ALOGPS_LOGP>
-0.29

> <JCHEM_LOGP>
-0.58

> <ALOGPS_LOGS>
-1.6

> <JCHEM_POLARIZABILITY>
19.22

> <JCHEM_POLAR_SURFACE_AREA>
89.85

> <JCHEM_REFRACTIVITY>
52.21

> <JCHEM_ROTATABLE_BOND_COUNT>
2

> <ALOGPS_SOLUBILITY>
5.45e+00 g/l __ 

$$$$
