
  Mrv0541 02231216482D          

 23 24  0  0  1  0            999 V2000
    1.4289    0.0000    0.0000 C   0  0  0  0  0  0  0  0  0  0  0  0
    0.7145   -0.4125    0.0000 O   0  0  0  0  0  0  0  0  0  0  0  0
    0.7145   -1.2375    0.0000 C   0  0  2  0  0  0  0  0  0  0  0  0
    1.3819   -1.7224    0.0000 C   0  0  1  0  0  0  0  0  0  0  0  0
    2.1665   -1.4675    0.0000 C   0  0  0  0  0  0  0  0  0  0  0  0
    1.1270   -2.5070    0.0000 C   0  0  2  0  0  0  0  0  0  0  0  0
    1.6119   -3.1745    0.0000 C   0  0  0  0  0  0  0  0  0  0  0  0
    2.4324   -3.0882    0.0000 O   0  0  0  0  0  0  0  0  0  0  0  0
    2.9173   -3.7557    0.0000 P   0  0  0  0  0  0  0  0  0  0  0  0
    3.4022   -4.4231    0.0000 O   0  0  0  0  0  0  0  0  0  0  0  0
    3.5847   -3.2708    0.0000 O   0  0  0  0  0  0  0  0  0  0  0  0
    2.2499   -4.2406    0.0000 O   0  0  0  0  0  0  0  0  0  0  0  0
    0.3020   -2.5070    0.0000 O   0  0  0  0  0  0  0  0  0  0  0  0
    0.0470   -1.7224    0.0000 C   0  0  1  0  0  0  0  0  0  0  0  0
   -0.7376   -1.4675    0.0000 N   0  0  0  0  0  0  0  0  0  0  0  0
   -1.3507   -2.0195    0.0000 C   0  0  0  0  0  0  0  0  0  0  0  0
   -2.1353   -1.7646    0.0000 C   0  0  0  0  0  0  0  0  0  0  0  0
   -2.7484   -2.3166    0.0000 C   0  0  0  0  0  0  0  0  0  0  0  0
   -2.3068   -0.9576    0.0000 C   0  0  0  0  0  0  0  0  0  0  0  0
   -3.0915   -0.7027    0.0000 O   0  0  0  0  0  0  0  0  0  0  0  0
   -1.6937   -0.4056    0.0000 N   0  0  0  0  0  0  0  0  0  0  0  0
   -0.9091   -0.6605    0.0000 C   0  0  0  0  0  0  0  0  0  0  0  0
   -0.2960   -0.1085    0.0000 O   0  0  0  0  0  0  0  0  0  0  0  0
  1  2  1  0  0  0  0
  3  2  1  6  0  0  0
  3  4  1  0  0  0  0
  4  5  1  1  0  0  0
  4  6  1  0  0  0  0
  6  7  1  6  0  0  0
  7  8  1  0  0  0  0
  8  9  1  0  0  0  0
  9 10  1  0  0  0  0
  9 11  1  0  0  0  0
  9 12  2  0  0  0  0
  6 13  1  0  0  0  0
 13 14  1  0  0  0  0
  3 14  1  0  0  0  0
 14 15  1  1  0  0  0
 15 16  1  0  0  0  0
 16 17  2  0  0  0  0
 17 18  1  0  0  0  0
 17 19  1  0  0  0  0
 19 20  2  0  0  0  0
 19 21  1  0  0  0  0
 21 22  1  0  0  0  0
 15 22  1  0  0  0  0
 22 23  2  0  0  0  0
M  END
> <DRUGBANK_ID>
DB03249

> <DRUG_GROUPS>
experimental

> <GENERIC_NAME>
2'-O-Methyl-3'-Methyl-3'-Deoxy-Arabinofuranosyl-Thymine-5'-Phosphate

> <CHEMICAL_FORMULA>
C12H19N2O8P

> <MOLECULAR_WEIGHT>
350.2616

> <EXACT_MASS>
350.087902106

> <IUPAC_NAME>
{[(2R,3S,4R,5R)-4-methoxy-3-methyl-5-(5-methyl-2,4-dioxo-1,2,3,4-tetrahydropyrimidin-1-yl)oxolan-2-yl]methoxy}phosphonic acid

> <IUPAC_TRADITIONAL_NAME>
[(2R,3S,4R,5R)-4-methoxy-3-methyl-5-(5-methyl-2,4-dioxo-3H-pyrimidin-1-yl)oxolan-2-yl]methoxyphosphonic acid

> <INCHI_IDENTIFIER>
InChI=1S/C12H19N2O8P/c1-6-4-14(12(16)13-10(6)15)11-9(20-3)7(2)8(22-11)5-21-23(17,18)19/h4,7-9,11H,5H2,1-3H3,(H,13,15,16)(H2,17,18,19)/t7-,8-,9+,11+/m0/s1

> <INCHI_KEY>
InChIKey=MCXXETKRWYMFCI-WYOJIJJFSA-N

> <SMILES>
CO[C@@H]1[C@@H](C)[C@H](COP(O)(O)=O)O[C@H]1N1C=C(C)C(=O)NC1=O

> <JCHEM_ACCEPTOR_COUNT>
7

> <JCHEM_DONOR_COUNT>
3

> <JCHEM_ACIDIC_PKA>
1.3

> <JCHEM_BASIC_PKA>
-3.9

> <JCHEM_PHYSIOLOGICAL_CHARGE>
-2

> <ALOGPS_LOGP>
-0.8

> <JCHEM_LOGP>
-0.33

> <ALOGPS_LOGS>
-1.9

> <JCHEM_POLARIZABILITY>
31.56

> <JCHEM_POLAR_SURFACE_AREA>
134.63

> <JCHEM_REFRACTIVITY>
75.87

> <JCHEM_ROTATABLE_BOND_COUNT>
5

> <ALOGPS_SOLUBILITY>
4.89e+00 g/l __ 

$$$$
