
  Mrv0541 02231216492D          

 22 23  0  0  1  0            999 V2000
   -0.7145   -0.4125    0.0000 C   0  0  0  0  0  0  0  0  0  0  0  0
   -0.7145   -1.2375    0.0000 C   0  0  2  0  0  0  0  0  0  0  0  0
   -1.4289   -1.6500    0.0000 O   0  0  0  0  0  0  0  0  0  0  0  0
   -1.4289   -2.4750    0.0000 C   0  0  2  0  0  0  0  0  0  0  0  0
   -2.1434   -2.8875    0.0000 O   0  0  0  0  0  0  0  0  0  0  0  0
   -0.7145   -2.8875    0.0000 C   0  0  1  0  0  0  0  0  0  0  0  0
   -0.7145   -3.7125    0.0000 O   0  0  0  0  0  0  0  0  0  0  0  0
    0.0000   -2.4750    0.0000 C   0  0  2  0  0  0  0  0  0  0  0  0
    0.7145   -2.8875    0.0000 O   0  0  0  0  0  0  0  0  0  0  0  0
    0.0000   -1.6500    0.0000 C   0  0  1  0  0  0  0  0  0  0  0  0
    0.7145   -1.2375    0.0000 N   0  0  0  0  0  0  0  0  0  0  0  0
    0.7145   -0.4125    0.0000 C   0  0  2  0  0  0  0  0  0  0  0  0
    0.0000    0.0000    0.0000 C   0  0  0  0  0  0  0  0  0  0  0  0
    0.0000    0.8250    0.0000 C   0  0  0  0  0  0  0  0  0  0  0  0
   -0.7145    1.2375    0.0000 C   0  0  0  0  0  0  0  0  0  0  0  0
   -1.4289    0.8250    0.0000 O   0  0  0  0  0  0  0  0  0  0  0  0
    0.7145    1.2375    0.0000 C   0  0  1  0  0  0  0  0  0  0  0  0
    0.7145    2.0625    0.0000 O   0  0  0  0  0  0  0  0  0  0  0  0
    1.4289    0.8250    0.0000 C   0  0  2  0  0  0  0  0  0  0  0  0
    2.1434    1.2375    0.0000 O   0  0  0  0  0  0  0  0  0  0  0  0
    1.4289    0.0000    0.0000 C   0  0  2  0  0  0  0  0  0  0  0  0
    2.1434   -0.4125    0.0000 O   0  0  0  0  0  0  0  0  0  0  0  0
  2  1  1  1  0  0  0
  2  3  1  0  0  0  0
  3  4  1  0  0  0  0
  4  5  1  1  0  0  0
  4  6  1  0  0  0  0
  6  7  1  6  0  0  0
  6  8  1  0  0  0  0
  8  9  1  1  0  0  0
  8 10  1  0  0  0  0
  2 10  1  0  0  0  0
 10 11  1  6  0  0  0
 12 11  1  6  0  0  0
 12 13  1  0  0  0  0
 13 14  2  0  0  0  0
 14 15  1  0  0  0  0
 15 16  1  0  0  0  0
 14 17  1  0  0  0  0
 17 18  1  1  0  0  0
 17 19  1  0  0  0  0
 19 20  1  6  0  0  0
 19 21  1  0  0  0  0
 12 21  1  0  0  0  0
 21 22  1  6  0  0  0
M  END
> <DRUGBANK_ID>
DB03269

> <DRUG_GROUPS>
experimental

> <GENERIC_NAME>
4-Deoxy-4-((5-Hydroxymethyl-2,3,4-Trihydroxycyclohex-5,6-Enyl)Amino)Fructose

> <CHEMICAL_FORMULA>
C13H23NO8

> <MOLECULAR_WEIGHT>
321.3236

> <EXACT_MASS>
321.142366717

> <IUPAC_NAME>
(2S,3S,4R,5R,6S)-6-methyl-5-{[(1R,4R,5S,6R)-4,5,6-trihydroxy-3-(hydroxymethyl)cyclohex-2-en-1-yl]amino}oxane-2,3,4-triol

> <IUPAC_TRADITIONAL_NAME>
(2S,3S,4R,5R,6S)-6-methyl-5-{[(1R,4R,5S,6R)-4,5,6-trihydroxy-3-(hydroxymethyl)cyclohex-2-en-1-yl]amino}oxane-2,3,4-triol

> <INCHI_IDENTIFIER>
InChI=1S/C13H23NO8/c1-4-7(10(18)12(20)13(21)22-4)14-6-2-5(3-15)8(16)11(19)9(6)17/h2,4,6-21H,3H2,1H3/t4-,6+,7-,8+,9+,10+,11-,12-,13-/m0/s1

> <INCHI_KEY>
InChIKey=RBZIIHWPZWOIDU-IJZUXERNSA-N

> <SMILES>
C[C@@H]1O[C@H](O)[C@@H](O)[C@H](O)[C@H]1N[C@@H]1C=C(CO)[C@@H](O)[C@H](O)[C@@H]1O

> <JCHEM_ACCEPTOR_COUNT>
9

> <JCHEM_DONOR_COUNT>
8

> <JCHEM_ACIDIC_PKA>
11.31

> <JCHEM_BASIC_PKA>
6.73

> <JCHEM_PHYSIOLOGICAL_CHARGE>
0

> <ALOGPS_LOGP>
-2.2

> <JCHEM_LOGP>
-4.1

> <ALOGPS_LOGS>
-0.28

> <JCHEM_POLARIZABILITY>
31.06

> <JCHEM_POLAR_SURFACE_AREA>
162.87

> <JCHEM_REFRACTIVITY>
72.78

> <JCHEM_ROTATABLE_BOND_COUNT>
3

> <ALOGPS_SOLUBILITY>
1.68e+02 g/l __ 

$$$$
