
  Mrv0541 02231216472D          

  6  5  0  0  0  0            999 V2000
    0.1105   -1.2375    0.0000 O   0  0  0  0  0  0  0  0  0  0  0  0
    0.8250   -0.8250    0.0000 C   0  0  0  0  0  0  0  0  0  0  0  0
    0.8250    0.0000    0.0000 C   0  0  0  0  0  0  0  0  0  0  0  0
    0.8250    0.8250    0.0000 F   0  0  0  0  0  0  0  0  0  0  0  0
    1.6500    0.0000    0.0000 F   0  0  0  0  0  0  0  0  0  0  0  0
    0.0000    0.0000    0.0000 F   0  0  0  0  0  0  0  0  0  0  0  0
  1  2  1  0  0  0  0
  2  3  1  0  0  0  0
  3  4  1  0  0  0  0
  3  5  1  0  0  0  0
  3  6  1  0  0  0  0
M  END
> <DRUGBANK_ID>
DB03226

> <DRUG_GROUPS>
experimental

> <GENERIC_NAME>
Trifluoroethanol

> <CHEMICAL_FORMULA>
C2H3F3O

> <MOLECULAR_WEIGHT>
100.0398

> <EXACT_MASS>
100.013599333

> <IUPAC_NAME>
2,2,2-trifluoroethan-1-ol

> <IUPAC_TRADITIONAL_NAME>
trifluoroethanol

> <INCHI_IDENTIFIER>
InChI=1S/C2H3F3O/c3-2(4,5)1-6/h6H,1H2

> <INCHI_KEY>
InChIKey=RHQDFWAXVIIEBN-UHFFFAOYSA-N

> <SMILES>
OCC(F)(F)F

> <JCHEM_ACCEPTOR_COUNT>
1

> <JCHEM_DONOR_COUNT>
1

> <JCHEM_ACIDIC_PKA>
11.49

> <JCHEM_BASIC_PKA>
-4.3

> <JCHEM_PHYSIOLOGICAL_CHARGE>
0

> <ALOGPS_LOGP>
0.61

> <JCHEM_LOGP>
0.44

> <ALOGPS_LOGS>
-0.25

> <JCHEM_POLARIZABILITY>
5.61

> <JCHEM_POLAR_SURFACE_AREA>
20.23

> <JCHEM_REFRACTIVITY>
13.71

> <JCHEM_ROTATABLE_BOND_COUNT>
1

> <ALOGPS_SOLUBILITY>
5.58e+01 g/l __ 

$$$$
