IDI
  Mrv0541 02231217122D          

 11 12  0  0  0  0            999 V2000
   -2.2367   -0.8158    0.0000 I   0  0  0  0  0  0  0  0  0  0  0  0
   -0.8077    0.8342    0.0000 C   0  0  0  0  0  0  0  0  0  0  0  0
   -1.5222    0.4217    0.0000 C   0  0  0  0  0  0  0  0  0  0  0  0
   -1.5222   -0.4033    0.0000 C   0  0  0  0  0  0  0  0  0  0  0  0
   -0.8077   -0.8158    0.0000 C   0  0  0  0  0  0  0  0  0  0  0  0
   -0.0933   -0.4033    0.0000 C   0  0  0  0  0  0  0  0  0  0  0  0
   -0.0933    0.4217    0.0000 C   0  0  0  0  0  0  0  0  0  0  0  0
    0.6212   -0.8158    0.0000 C   0  0  0  0  0  0  0  0  0  0  0  0
    1.3357    0.4217    0.0000 C   0  0  0  0  0  0  0  0  0  0  0  0
    0.6212    0.8342    0.0000 C   0  0  0  0  0  0  0  0  0  0  0  0
    1.3357   -0.4033    0.0000 N   0  0  0  0  0  0  0  0  0  0  0  0
  1  4  1  0  0  0  0
  2  3  2  0  0  0  0
  2  7  1  0  0  0  0
  3  4  1  0  0  0  0
  4  5  2  0  0  0  0
  5  6  1  0  0  0  0
  6  7  2  0  0  0  0
  6  8  1  0  0  0  0
  7 10  1  0  0  0  0
  8 11  1  0  0  0  0
  9 10  1  0  0  0  0
  9 11  1  0  0  0  0
M  END
> <DRUGBANK_ID>
DB03824

> <DRUG_GROUPS>
experimental

> <GENERIC_NAME>
7-Iodo-1,2,3,4-Tetrahydro-Isoquinoline

> <CHEMICAL_FORMULA>
C9H10IN

> <MOLECULAR_WEIGHT>
259.0869

> <EXACT_MASS>
258.985792745

> <IUPAC_NAME>
7-iodo-1,2,3,4-tetrahydroisoquinoline

> <IUPAC_TRADITIONAL_NAME>
7-iodo-1,2,3,4-tetrahydroisoquinoline

> <INCHI_IDENTIFIER>
InChI=1S/C9H10IN/c10-9-2-1-7-3-4-11-6-8(7)5-9/h1-2,5,11H,3-4,6H2

> <INCHI_KEY>
InChIKey=FFCFXJXBXUOFIU-UHFFFAOYSA-N

> <SMILES>
IC1=CC2=C(CCNC2)C=C1

> <JCHEM_ACCEPTOR_COUNT>
1

> <JCHEM_DONOR_COUNT>
1

> <JCHEM_BASIC_PKA>
9.21

> <JCHEM_PHYSIOLOGICAL_CHARGE>
1

> <ALOGPS_LOGP>
1.84

> <JCHEM_LOGP>
2.5

> <ALOGPS_LOGS>
-3.4

> <JCHEM_POLARIZABILITY>
21.12

> <JCHEM_POLAR_SURFACE_AREA>
12.03

> <JCHEM_REFRACTIVITY>
55.98

> <JCHEM_ROTATABLE_BOND_COUNT>
0

> <ALOGPS_SOLUBILITY>
9.81e-02 g/l __ 

$$$$
