
  Mrv0541 02231217132D          

 72 78  0  0  0  0            999 V2000
    0.7145   -6.1875    0.0000 O   0  0  0  0  0  0  0  0  0  0  0  0
    0.7145   -5.3625    0.0000 C   0  0  0  0  0  0  0  0  0  0  0  0
    0.0000   -4.9500    0.0000 C   0  0  0  0  0  0  0  0  0  0  0  0
    0.0000   -4.1250    0.0000 C   0  0  0  0  0  0  0  0  0  0  0  0
    0.7145   -3.7125    0.0000 C   0  0  0  0  0  0  0  0  0  0  0  0
    1.4289   -4.1250    0.0000 C   0  0  0  0  0  0  0  0  0  0  0  0
    1.4289   -4.9500    0.0000 C   0  0  0  0  0  0  0  0  0  0  0  0
    2.1434   -5.3625    0.0000 N   0  0  0  0  0  0  0  0  0  0  0  0
    2.8579   -4.9500    0.0000 N   0  0  0  0  0  0  0  0  0  0  0  0
    3.5724   -5.3625    0.0000 C   0  0  0  0  0  0  0  0  0  0  0  0
    4.2868   -4.9500    0.0000 C   0  0  0  0  0  0  0  0  0  0  0  0
    4.2868   -4.1250    0.0000 O   0  0  0  0  0  0  0  0  0  0  0  0
    5.0013   -5.3625    0.0000 C   0  0  0  0  0  0  0  0  0  0  0  0
    5.7158   -4.9500    0.0000 C   0  0  0  0  0  0  0  0  0  0  0  0
    6.4302   -5.3625    0.0000 C   0  0  0  0  0  0  0  0  0  0  0  0
    6.4302   -6.1875    0.0000 C   0  0  0  0  0  0  0  0  0  0  0  0
    7.1447   -6.6000    0.0000 N   0  0  0  0  0  0  0  0  0  0  0  0
    7.1447   -7.4250    0.0000 C   0  0  0  0  0  0  0  0  0  0  0  0
    7.8592   -7.8375    0.0000 N   0  0  0  0  0  0  0  0  0  0  0  0
    7.8592   -8.6625    0.0000 C   0  0  0  0  0  0  0  0  0  0  0  0
    8.5737   -9.0750    0.0000 N   0  0  0  0  0  0  0  0  0  0  0  0
    8.5737   -9.9000    0.0000 C   0  0  0  0  0  0  0  0  0  0  0  0
    7.8592  -10.3125    0.0000 C   0  0  0  0  0  0  0  0  0  0  0  0
    7.8592  -11.1375    0.0000 C   0  0  0  0  0  0  0  0  0  0  0  0
    8.5737  -11.5500    0.0000 C   0  0  0  0  0  0  0  0  0  0  0  0
    9.2881  -11.1375    0.0000 C   0  0  0  0  0  0  0  0  0  0  0  0
    9.2881  -10.3125    0.0000 C   0  0  0  0  0  0  0  0  0  0  0  0
    8.5737  -12.3750    0.0000 C   0  0  0  0  0  0  0  0  0  0  0  0
    9.2881  -12.7875    0.0000 O   0  0  0  0  0  0  0  0  0  0  0  0
    7.8592  -12.7875    0.0000 C   0  0  0  0  0  0  0  0  0  0  0  0
    7.8592  -13.6125    0.0000 N   0  0  0  0  0  0  0  0  0  0  0  0
    8.5737  -14.0250    0.0000 N   0  0  0  0  0  0  0  0  0  0  0  0
    8.5737  -14.8500    0.0000 C   0  0  0  0  0  0  0  0  0  0  0  0
    9.2881  -15.2625    0.0000 C   0  0  0  0  0  0  0  0  0  0  0  0
    9.2881  -16.0875    0.0000 C   0  0  0  0  0  0  0  0  0  0  0  0
    8.5737  -16.5000    0.0000 C   0  0  0  0  0  0  0  0  0  0  0  0
    7.8592  -16.0875    0.0000 C   0  0  0  0  0  0  0  0  0  0  0  0
    7.8592  -15.2625    0.0000 C   0  0  0  0  0  0  0  0  0  0  0  0
    7.1447  -14.8500    0.0000 O   0  0  0  0  0  0  0  0  0  0  0  0
   10.0026  -16.5000    0.0000 S   0  0  0  0  0  0  0  0  0  0  0  0
   10.7171  -16.9125    0.0000 O   0  0  0  0  0  0  0  0  0  0  0  0
   10.4151  -15.7855    0.0000 O   0  0  0  0  0  0  0  0  0  0  0  0
    9.5901  -17.2145    0.0000 O   0  0  0  0  0  0  0  0  0  0  0  0
    7.1447  -12.3750    0.0000 C   0  0  0  0  0  0  0  0  0  0  0  0
    7.1447  -11.5500    0.0000 C   0  0  0  0  0  0  0  0  0  0  0  0
    6.4302  -12.7875    0.0000 S   0  0  0  0  0  0  0  0  0  0  0  0
    5.7158  -13.2000    0.0000 O   0  0  0  0  0  0  0  0  0  0  0  0
    6.0177  -12.0730    0.0000 O   0  0  0  0  0  0  0  0  0  0  0  0
    6.8427  -13.5020    0.0000 O   0  0  0  0  0  0  0  0  0  0  0  0
    7.1447   -9.9000    0.0000 S   0  0  0  0  0  0  0  0  0  0  0  0
    6.4302   -9.4875    0.0000 O   0  0  0  0  0  0  0  0  0  0  0  0
    6.7322  -10.6145    0.0000 O   0  0  0  0  0  0  0  0  0  0  0  0
    7.5572   -9.1855    0.0000 O   0  0  0  0  0  0  0  0  0  0  0  0
    7.1447   -9.0750    0.0000 N   0  0  0  0  0  0  0  0  0  0  0  0
    6.4302   -8.6625    0.0000 C   0  0  0  0  0  0  0  0  0  0  0  0
    6.4302   -7.8375    0.0000 N   0  0  0  0  0  0  0  0  0  0  0  0
    5.7158   -6.6000    0.0000 C   0  0  0  0  0  0  0  0  0  0  0  0
    5.0013   -6.1875    0.0000 C   0  0  0  0  0  0  0  0  0  0  0  0
    4.2868   -6.6000    0.0000 C   0  0  0  0  0  0  0  0  0  0  0  0
    3.5724   -6.1875    0.0000 C   0  0  0  0  0  0  0  0  0  0  0  0
    2.8579   -6.6000    0.0000 S   0  0  0  0  0  0  0  0  0  0  0  0
    2.1434   -7.0125    0.0000 O   0  0  0  0  0  0  0  0  0  0  0  0
    2.4454   -5.8855    0.0000 O   0  0  0  0  0  0  0  0  0  0  0  0
    3.2704   -7.3145    0.0000 O   0  0  0  0  0  0  0  0  0  0  0  0
    5.7158   -7.4250    0.0000 S   0  0  0  0  0  0  0  0  0  0  0  0
    5.7158   -8.2500    0.0000 O   0  0  0  0  0  0  0  0  0  0  0  0
    4.8908   -7.4250    0.0000 O   0  0  0  0  0  0  0  0  0  0  0  0
    6.5408   -7.4250    0.0000 O   0  0  0  0  0  0  0  0  0  0  0  0
    0.7145   -2.8875    0.0000 S   0  0  0  0  0  0  0  0  0  0  0  0
    0.7145   -2.0625    0.0000 O   0  0  0  0  0  0  0  0  0  0  0  0
    1.5395   -2.8875    0.0000 O   0  0  0  0  0  0  0  0  0  0  0  0
   -0.1105   -2.8875    0.0000 O   0  0  0  0  0  0  0  0  0  0  0  0
  1  2  1  0  0  0  0
  2  3  2  0  0  0  0
  3  4  1  0  0  0  0
  4  5  2  0  0  0  0
  5  6  1  0  0  0  0
  6  7  2  0  0  0  0
  2  7  1  0  0  0  0
  7  8  1  0  0  0  0
  8  9  2  0  0  0  0
  9 10  1  0  0  0  0
 10 11  2  0  0  0  0
 11 12  1  0  0  0  0
 11 13  1  0  0  0  0
 13 14  2  0  0  0  0
 14 15  1  0  0  0  0
 15 16  2  0  0  0  0
 16 17  1  0  0  0  0
 17 18  1  0  0  0  0
 18 19  2  0  0  0  0
 19 20  1  0  0  0  0
 20 21  1  0  0  0  0
 21 22  1  0  0  0  0
 22 23  2  0  0  0  0
 23 24  1  0  0  0  0
 24 25  2  0  0  0  0
 25 26  1  0  0  0  0
 26 27  2  0  0  0  0
 22 27  1  0  0  0  0
 25 28  1  0  0  0  0
 28 29  1  0  0  0  0
 28 30  2  0  0  0  0
 30 31  1  0  0  0  0
 31 32  2  0  0  0  0
 32 33  1  0  0  0  0
 33 34  2  0  0  0  0
 34 35  1  0  0  0  0
 35 36  2  0  0  0  0
 36 37  1  0  0  0  0
 37 38  2  0  0  0  0
 33 38  1  0  0  0  0
 38 39  1  0  0  0  0
 35 40  1  0  0  0  0
 40 41  1  0  0  0  0
 40 42  2  0  0  0  0
 40 43  2  0  0  0  0
 30 44  1  0  0  0  0
 44 45  2  0  0  0  0
 24 45  1  0  0  0  0
 44 46  1  0  0  0  0
 46 47  1  0  0  0  0
 46 48  2  0  0  0  0
 46 49  2  0  0  0  0
 23 50  1  0  0  0  0
 50 51  1  0  0  0  0
 50 52  2  0  0  0  0
 50 53  2  0  0  0  0
 20 54  2  0  0  0  0
 54 55  1  0  0  0  0
 55 56  2  0  0  0  0
 18 56  1  0  0  0  0
 16 57  1  0  0  0  0
 57 58  2  0  0  0  0
 13 58  1  0  0  0  0
 58 59  1  0  0  0  0
 59 60  2  0  0  0  0
 10 60  1  0  0  0  0
 60 61  1  0  0  0  0
 61 62  1  0  0  0  0
 61 63  2  0  0  0  0
 61 64  2  0  0  0  0
 57 65  1  0  0  0  0
 65 66  1  0  0  0  0
 65 67  2  0  0  0  0
 65 68  2  0  0  0  0
  5 69  1  0  0  0  0
 69 70  1  0  0  0  0
 69 71  2  0  0  0  0
 69 72  2  0  0  0  0
M  END
> <DRUGBANK_ID>
DB03853

> <DRUG_GROUPS>
experimental

> <GENERIC_NAME>
Azo-Dye Hapten

> <CHEMICAL_FORMULA>
C35H25N9O22S6

> <MOLECULAR_WEIGHT>
1116.01

> <EXACT_MASS>
1114.943837669

> <IUPAC_NAME>
5-hydroxy-6-[(E)-2-(2-hydroxy-5-sulfophenyl)diazen-1-yl]-2-{[4-({5-hydroxy-6-[(E)-2-(2-hydroxy-5-sulfophenyl)diazen-1-yl]-1,7-disulfonaphthalen-2-yl}amino)-1,3,5-triazin-2-yl]amino}naphthalene-1,7-disulfonic acid

> <IUPAC_TRADITIONAL_NAME>
azo-dye hapten

> <INCHI_IDENTIFIER>
InChI=1S/C35H25N9O22S6/c45-24-7-1-14(67(49,50)51)9-22(24)41-43-28-26(69(55,56)57)11-18-16(30(28)47)3-5-20(32(18)71(61,62)63)38-34-36-13-37-35(40-34)39-21-6-4-17-19(33(21)72(64,65)66)12-27(70(58,59)60)29(31(17)48)44-42-23-10-15(68(52,53)54)2-8-25(23)46/h1-13,45-48H,(H,49,50,51)(H,52,53,54)(H,55,56,57)(H,58,59,60)(H,61,62,63)(H,64,65,66)(H2,36,37,38,39,40)/b43-41+,44-42+

> <INCHI_KEY>
InChIKey=PJONDRDKCIFXDA-CHQNLTHESA-N

> <SMILES>
OC1=CC=C(C=C1\N=N\C1=C(O)C2=CC=C(NC3=NC(NC4=C(C5=C(C=C4)C(O)=C(\N=N\C4=CC(=CC=C4O)S(O)(=O)=O)C(=C5)S(O)(=O)=O)S(O)(=O)=O)=NC=N3)C(=C2C=C1S(O)(=O)=O)S(O)(=O)=O)S(O)(=O)=O

> <JCHEM_ACCEPTOR_COUNT>
31

> <JCHEM_DONOR_COUNT>
12

> <JCHEM_ACIDIC_PKA>
-3.7

> <JCHEM_BASIC_PKA>
-6.5

> <JCHEM_PHYSIOLOGICAL_CHARGE>
-7

> <ALOGPS_LOGP>
-0.49

> <JCHEM_LOGP>
4.76

> <ALOGPS_LOGS>
-3.9

> <JCHEM_POLARIZABILITY>
100.61

> <JCHEM_POLAR_SURFACE_AREA>
519.31

> <JCHEM_REFRACTIVITY>
252.58

> <JCHEM_ROTATABLE_BOND_COUNT>
14

> <ALOGPS_SOLUBILITY>
1.48e-01 g/l __ 

$$$$
