
  Mrv0541 02231217072D          

  6  5  0  0  0  0            999 V2000
    1.2375    2.1434    0.0000 O   0  0  0  0  0  0  0  0  0  0  0  0
    0.8250    1.4289    0.0000 C   0  0  0  0  0  0  0  0  0  0  0  0
    1.2375    0.7145    0.0000 C   0  0  0  0  0  0  0  0  0  0  0  0
    0.8250    0.0000    0.0000 C   0  0  0  0  0  0  0  0  0  0  0  0
    1.2375   -0.7145    0.0000 O   0  0  0  0  0  0  0  0  0  0  0  0
    0.0000    0.0000    0.0000 O   0  0  0  0  0  0  0  0  0  0  0  0
  1  2  1  0  0  0  0
  2  3  1  0  0  0  0
  3  4  1  0  0  0  0
  4  5  1  0  0  0  0
  4  6  2  0  0  0  0
M  END
> <DRUGBANK_ID>
DB03688

> <DRUG_GROUPS>
experimental

> <GENERIC_NAME>
3-Hydroxy-Propanoic Acid

> <CHEMICAL_FORMULA>
C3H6O3

> <MOLECULAR_WEIGHT>
90.0779

> <EXACT_MASS>
90.031694058

> <IUPAC_NAME>
3-hydroxypropanoic acid

> <IUPAC_TRADITIONAL_NAME>
3-hydroxy-propanoic acid

> <INCHI_IDENTIFIER>
InChI=1S/C3H6O3/c4-2-1-3(5)6/h4H,1-2H2,(H,5,6)

> <INCHI_KEY>
InChIKey=ALRHLSYJTWAHJZ-UHFFFAOYSA-N

> <SMILES>
OCCC(O)=O

> <JCHEM_ACCEPTOR_COUNT>
3

> <JCHEM_DONOR_COUNT>
2

> <JCHEM_ACIDIC_PKA>
4.2

> <JCHEM_BASIC_PKA>
-2.5

> <JCHEM_PHYSIOLOGICAL_CHARGE>
-1

> <ALOGPS_LOGP>
-0.95

> <JCHEM_LOGP>
-0.8

> <ALOGPS_LOGS>
0.86

> <JCHEM_POLARIZABILITY>
8.15

> <JCHEM_POLAR_SURFACE_AREA>
57.53

> <JCHEM_REFRACTIVITY>
19.05

> <JCHEM_ROTATABLE_BOND_COUNT>
2

> <ALOGPS_SOLUBILITY>
6.47e+02 g/l __ 

$$$$
