
  Mrv0541 02231216512D          

 13 14  0  0  0  0            999 V2000
    0.0768   -2.3215    0.0000 N   0  0  0  0  0  0  0  0  0  0  0  0
    0.8838   -2.1500    0.0000 C   0  0  0  0  0  0  0  0  0  0  0  0
    1.1387   -1.3654    0.0000 C   0  0  0  0  0  0  0  0  0  0  0  0
    0.6538   -0.6979    0.0000 C   0  0  0  0  0  0  0  0  0  0  0  0
    1.1387   -0.0305    0.0000 N   0  0  0  0  0  0  0  0  0  0  0  0
    1.9233   -0.2854    0.0000 C   0  0  0  0  0  0  0  0  0  0  0  0
    2.6378    0.1271    0.0000 N   0  0  0  0  0  0  0  0  0  0  0  0
    3.3523   -0.2854    0.0000 C   0  0  0  0  0  0  0  0  0  0  0  0
    4.0668    0.1271    0.0000 N   0  0  0  0  0  0  0  0  0  0  0  0
    3.3523   -1.1104    0.0000 N   0  0  0  0  0  0  0  0  0  0  0  0
    2.6378   -1.5229    0.0000 C   0  0  0  0  0  0  0  0  0  0  0  0
    2.6378   -2.3479    0.0000 O   0  0  0  0  0  0  0  0  0  0  0  0
    1.9233   -1.1104    0.0000 C   0  0  0  0  0  0  0  0  0  0  0  0
  1  2  1  0  0  0  0
  2  3  1  0  0  0  0
  3  4  4  0  0  0  0
  4  5  4  0  0  0  0
  5  6  4  0  0  0  0
  6  7  1  0  0  0  0
  7  8  2  0  0  0  0
  8  9  1  0  0  0  0
  8 10  1  0  0  0  0
 10 11  1  0  0  0  0
 11 12  2  0  0  0  0
 11 13  1  0  0  0  0
  3 13  4  0  0  0  0
  6 13  4  0  0  0  0
M  END
> <DRUGBANK_ID>
DB03304

> <DRUG_GROUPS>
experimental

> <GENERIC_NAME>
7-Deaza-7-Aminomethyl-Guanine

> <CHEMICAL_FORMULA>
C7H8N5O

> <MOLECULAR_WEIGHT>
178.1713

> <EXACT_MASS>
178.072884903

> <IUPAC_NAME>
2-amino-5-(aminomethyl)pyrrolo[2,3-d]pyrimidin-4-one

> <IUPAC_TRADITIONAL_NAME>
2-amino-5-(aminomethyl)pyrrolo[2,3-d]pyrimidin-4-one

> <INCHI_IDENTIFIER>
InChI=1S/C7H8N5O/c8-1-3-2-10-5-4(3)6(13)12-7(9)11-5/h2H,1,8H2,(H3,9,10,11,12,13)

> <INCHI_KEY>
InChIKey=CNZFITCPIOUDDX-UHFFFAOYSA-N

> <SMILES>
NCc1cnc2N=C(N)NC(=O)c12

> <JCHEM_ACCEPTOR_COUNT>
5

> <JCHEM_DONOR_COUNT>
3

> <JCHEM_ACIDIC_PKA>
8.03

> <JCHEM_BASIC_PKA>
9.08

> <JCHEM_PHYSIOLOGICAL_CHARGE>
1

> <ALOGPS_LOGP>
-1.4

> <JCHEM_LOGP>
-2.2

> <ALOGPS_LOGS>
-1.8

> <JCHEM_POLARIZABILITY>
17.04

> <JCHEM_POLAR_SURFACE_AREA>
110.68

> <JCHEM_REFRACTIVITY>
47.27

> <JCHEM_ROTATABLE_BOND_COUNT>
1

> <ALOGPS_SOLUBILITY>
2.93e+00 g/l __ 

$$$$
