
  Mrv0541 02231216432D          

 27 29  0  0  1  0            999 V2000
   -0.1663    8.8675    0.0000 N   0  0  0  0  0  0  0  0  0  0  0  0
    0.3857    8.2544    0.0000 C   0  0  0  0  0  0  0  0  0  0  0  0
    1.1927    8.4260    0.0000 N   0  0  0  0  0  0  0  0  0  0  0  0
    1.7447    7.8129    0.0000 C   0  0  0  0  0  0  0  0  0  0  0  0
    1.4898    7.0282    0.0000 N   0  0  0  0  0  0  0  0  0  0  0  0
    0.6828    6.8567    0.0000 C   0  0  0  0  0  0  0  0  0  0  0  0
    0.1308    7.4698    0.0000 C   0  0  0  0  0  0  0  0  0  0  0  0
   -0.6229    7.1343    0.0000 N   0  0  0  0  0  0  0  0  0  0  0  0
   -0.5366    6.3138    0.0000 C   0  0  0  0  0  0  0  0  0  0  0  0
    0.2703    6.1422    0.0000 N   0  0  0  0  0  0  0  0  0  0  0  0
    0.6059    5.3886    0.0000 C   0  0  2  0  0  0  0  0  0  0  0  0
    1.4129    5.2170    0.0000 O   0  0  0  0  0  0  0  0  0  0  0  0
    1.4991    4.3966    0.0000 C   0  0  1  0  0  0  0  0  0  0  0  0
    2.2136    3.9841    0.0000 C   0  0  0  0  0  0  0  0  0  0  0  0
    2.9280    4.3966    0.0000 O   0  0  0  0  0  0  0  0  0  0  0  0
    3.6425    3.9841    0.0000 P   0  0  1  0  0  0  0  0  0  0  0  0
    3.2300    3.2696    0.0000 O   0  0  0  0  0  0  0  0  0  0  0  0
    4.0550    4.6985    0.0000 O   0  0  0  0  0  0  0  0  0  0  0  0
    4.3570    3.5716    0.0000 C   0  0  0  0  0  0  0  0  0  0  0  0
    5.0714    3.9841    0.0000 P   0  0  0  0  0  0  0  0  0  0  0  0
    5.7859    4.3966    0.0000 O   0  0  0  0  0  0  0  0  0  0  0  0
    5.4839    3.2696    0.0000 O   0  0  0  0  0  0  0  0  0  0  0  0
    4.6589    4.6985    0.0000 O   0  0  0  0  0  0  0  0  0  0  0  0
    0.7454    4.0610    0.0000 C   0  0  2  0  0  0  0  0  0  0  0  0
    0.5739    3.2540    0.0000 O   0  0  0  0  0  0  0  0  0  0  0  0
    0.1934    4.6741    0.0000 C   0  0  1  0  0  0  0  0  0  0  0  0
   -0.6271    4.5879    0.0000 O   0  0  0  0  0  0  0  0  0  0  0  0
  1  2  1  0  0  0  0
  2  3  2  0  0  0  0
  3  4  1  0  0  0  0
  4  5  2  0  0  0  0
  5  6  1  0  0  0  0
  6  7  2  0  0  0  0
  2  7  1  0  0  0  0
  7  8  1  0  0  0  0
  8  9  2  0  0  0  0
  9 10  1  0  0  0  0
  6 10  1  0  0  0  0
 11 10  1  6  0  0  0
 11 12  1  0  0  0  0
 12 13  1  0  0  0  0
 13 14  1  1  0  0  0
 14 15  1  0  0  0  0
 16 15  1  1  0  0  0
 16 17  1  6  0  0  0
 16 18  2  0  0  0  0
 16 19  1  0  0  0  0
 19 20  1  0  0  0  0
 20 21  1  0  0  0  0
 20 22  1  0  0  0  0
 20 23  2  0  0  0  0
 13 24  1  0  0  0  0
 24 25  1  6  0  0  0
 24 26  1  0  0  0  0
 11 26  1  0  0  0  0
 26 27  1  1  0  0  0
M  END
> <DRUGBANK_ID>
DB03148

> <DRUG_GROUPS>
experimental

> <GENERIC_NAME>
Phosphomethylphosphonic Acid Adenosyl Ester

> <CHEMICAL_FORMULA>
C11H17N5O9P2

> <MOLECULAR_WEIGHT>
425.2283

> <EXACT_MASS>
425.050150191

> <IUPAC_NAME>
[({[(2S,3R,4R,5R)-5-(6-amino-9H-purin-9-yl)-3,4-dihydroxyoxolan-2-yl]methoxy}(hydroxy)phosphoryl)methyl]phosphonic acid

> <IUPAC_TRADITIONAL_NAME>
{[(2S,3R,4R,5R)-5-(6-aminopurin-9-yl)-3,4-dihydroxyoxolan-2-yl]methoxy(hydroxy)phosphoryl}methylphosphonic acid

> <INCHI_IDENTIFIER>
InChI=1S/C11H17N5O9P2/c12-9-6-10(14-2-13-9)16(3-15-6)11-8(18)7(17)5(25-11)1-24-27(22,23)4-26(19,20)21/h2-3,5,7-8,11,17-18H,1,4H2,(H,22,23)(H2,12,13,14)(H2,19,20,21)/t5-,7-,8+,11+/m0/s1

> <INCHI_KEY>
InChIKey=OLCWZBFDIYXLAA-WOIOKPISSA-N

> <SMILES>
NC1=NC=NC2=C1N=CN2[C@@H]1O[C@@H](CO[P@@](O)(=O)CP(O)(O)=O)[C@H](O)[C@H]1O

> <JCHEM_ACCEPTOR_COUNT>
12

> <JCHEM_DONOR_COUNT>
6

> <JCHEM_ACIDIC_PKA>
0.98

> <JCHEM_BASIC_PKA>
4.99

> <JCHEM_PHYSIOLOGICAL_CHARGE>
-2

> <ALOGPS_LOGP>
-1.9

> <JCHEM_LOGP>
-6.9

> <ALOGPS_LOGS>
-2.1

> <JCHEM_POLARIZABILITY>
35.21

> <JCHEM_POLAR_SURFACE_AREA>
223.37

> <JCHEM_REFRACTIVITY>
87.3

> <JCHEM_ROTATABLE_BOND_COUNT>
6

> <ALOGPS_SOLUBILITY>
3.36e+00 g/l __ 

$$$$
