
  Mrv0541 02231216572D          

  9  9  0  0  0  0            999 V2000
    2.1434    1.2375    0.0000 C   0  0  0  0  0  0  0  0  0  0  0  0
    1.4289    0.8250    0.0000 C   0  0  0  0  0  0  0  0  0  0  0  0
    1.4289    0.0000    0.0000 C   0  0  0  0  0  0  0  0  0  0  0  0
    0.7145   -0.4125    0.0000 C   0  0  0  0  0  0  0  0  0  0  0  0
    0.0000    0.0000    0.0000 C   0  0  0  0  0  0  0  0  0  0  0  0
    0.0000    0.8250    0.0000 C   0  0  0  0  0  0  0  0  0  0  0  0
   -0.7145    1.2375    0.0000 O   0  0  0  0  0  0  0  0  0  0  0  0
    0.7145    1.2375    0.0000 C   0  0  0  0  0  0  0  0  0  0  0  0
    0.7145    2.0625    0.0000 O   0  0  0  0  0  0  0  0  0  0  0  0
  1  2  1  0  0  0  0
  2  3  2  0  0  0  0
  3  4  1  0  0  0  0
  4  5  2  0  0  0  0
  5  6  1  0  0  0  0
  6  7  1  0  0  0  0
  6  8  2  0  0  0  0
  2  8  1  0  0  0  0
  8  9  1  0  0  0  0
M  END
> <DRUGBANK_ID>
DB03454

> <DRUG_GROUPS>
experimental

> <GENERIC_NAME>
3-Methyl-Benzene-1,2-Diol

> <CHEMICAL_FORMULA>
C7H8O2

> <MOLECULAR_WEIGHT>
124.1372

> <EXACT_MASS>
124.0524295

> <IUPAC_NAME>
3-methylbenzene-1,2-diol

> <IUPAC_TRADITIONAL_NAME>
3-methyl-benzene-1,2-diol

> <INCHI_IDENTIFIER>
InChI=1S/C7H8O2/c1-5-3-2-4-6(8)7(5)9/h2-4,8-9H,1H3

> <INCHI_KEY>
InChIKey=PGSWEKYNAOWQDF-UHFFFAOYSA-N

> <SMILES>
CC1=CC=CC(O)=C1O

> <JCHEM_ACCEPTOR_COUNT>
2

> <JCHEM_DONOR_COUNT>
2

> <JCHEM_ACIDIC_PKA>
9.59

> <JCHEM_BASIC_PKA>
-6.3

> <JCHEM_PHYSIOLOGICAL_CHARGE>
0

> <ALOGPS_LOGP>
1.03

> <JCHEM_LOGP>
1.88

> <ALOGPS_LOGS>
-0.53

> <JCHEM_POLARIZABILITY>
12.73

> <JCHEM_POLAR_SURFACE_AREA>
40.46

> <JCHEM_REFRACTIVITY>
35.06

> <JCHEM_ROTATABLE_BOND_COUNT>
0

> <ALOGPS_SOLUBILITY>
3.67e+01 g/l __ 

$$$$
