
  Mrv0541 02231217082D          

 32 34  0  0  1  0            999 V2000
   -6.4235    2.2180    0.0000 N   0  0  0  0  0  0  0  0  0  0  0  0
   -6.6784    1.4334    0.0000 C   0  0  0  0  0  0  0  0  0  0  0  0
   -6.1264    0.8203    0.0000 N   0  0  0  0  0  0  0  0  0  0  0  0
   -6.3813    0.0356    0.0000 C   0  0  0  0  0  0  0  0  0  0  0  0
   -7.1883   -0.1359    0.0000 C   0  0  0  0  0  0  0  0  0  0  0  0
   -7.2745   -0.9564    0.0000 N   0  0  0  0  0  0  0  0  0  0  0  0
   -6.5208   -1.2919    0.0000 C   0  0  0  0  0  0  0  0  0  0  0  0
   -5.9688   -0.6788    0.0000 N   0  0  0  0  0  0  0  0  0  0  0  0
   -5.1483   -0.7651    0.0000 C   0  0  2  0  0  0  0  0  0  0  0  0
   -4.5963   -0.1520    0.0000 O   0  0  0  0  0  0  0  0  0  0  0  0
   -3.8426   -0.4875    0.0000 C   0  0  1  0  0  0  0  0  0  0  0  0
   -3.1281   -0.0750    0.0000 C   0  0  0  0  0  0  0  0  0  0  0  0
   -2.4137   -0.4875    0.0000 O   0  0  0  0  0  0  0  0  0  0  0  0
   -1.6992   -0.0750    0.0000 P   0  0  1  0  0  0  0  0  0  0  0  0
   -1.2867   -0.7895    0.0000 O   0  0  0  0  0  0  0  0  0  0  0  0
   -2.1117    0.6394    0.0000 O   0  0  0  0  0  0  0  0  0  0  0  0
   -0.9847    0.3375    0.0000 O   0  0  0  0  0  0  0  0  0  0  0  0
   -0.2703   -0.0750    0.0000 P   0  0  1  0  0  0  0  0  0  0  0  0
   -0.6828   -0.7895    0.0000 O   0  0  0  0  0  0  0  0  0  0  0  0
    0.1422    0.6394    0.0000 O   0  0  0  0  0  0  0  0  0  0  0  0
    0.4442   -0.4875    0.0000 C   0  0  0  0  0  0  0  0  0  0  0  0
    1.1587   -0.0750    0.0000 P   0  0  0  0  0  0  0  0  0  0  0  0
    1.8732    0.3375    0.0000 O   0  0  0  0  0  0  0  0  0  0  0  0
    1.5712   -0.7895    0.0000 O   0  0  0  0  0  0  0  0  0  0  0  0
    0.7462    0.6394    0.0000 O   0  0  0  0  0  0  0  0  0  0  0  0
   -3.9288   -1.3080    0.0000 C   0  0  2  0  0  0  0  0  0  0  0  0
   -3.3157   -1.8600    0.0000 O   0  0  0  0  0  0  0  0  0  0  0  0
   -4.7358   -1.4795    0.0000 C   0  0  1  0  0  0  0  0  0  0  0  0
   -5.0714   -2.2332    0.0000 O   0  0  0  0  0  0  0  0  0  0  0  0
   -7.7403    0.4772    0.0000 C   0  0  0  0  0  0  0  0  0  0  0  0
   -8.5473    0.3057    0.0000 O   0  0  0  0  0  0  0  0  0  0  0  0
   -7.4854    1.2618    0.0000 N   0  0  0  0  0  0  0  0  0  0  0  0
  1  2  1  0  0  0  0
  2  3  2  0  0  0  0
  3  4  1  0  0  0  0
  4  5  2  0  0  0  0
  5  6  1  0  0  0  0
  6  7  2  0  0  0  0
  7  8  1  0  0  0  0
  4  8  1  0  0  0  0
  9  8  1  6  0  0  0
  9 10  1  0  0  0  0
 10 11  1  0  0  0  0
 11 12  1  1  0  0  0
 12 13  1  0  0  0  0
 14 13  1  1  0  0  0
 14 15  1  6  0  0  0
 14 16  2  0  0  0  0
 14 17  1  0  0  0  0
 18 17  1  1  0  0  0
 18 19  1  6  0  0  0
 18 20  2  0  0  0  0
 18 21  1  0  0  0  0
 21 22  1  0  0  0  0
 22 23  1  0  0  0  0
 22 24  1  0  0  0  0
 22 25  2  0  0  0  0
 11 26  1  0  0  0  0
 26 27  1  6  0  0  0
 26 28  1  0  0  0  0
  9 28  1  0  0  0  0
 28 29  1  1  0  0  0
  5 30  1  0  0  0  0
 30 31  2  0  0  0  0
 30 32  1  0  0  0  0
  2 32  1  0  0  0  0
M  END
> <DRUGBANK_ID>
DB03725

> <DRUG_GROUPS>
experimental

> <GENERIC_NAME>
Phosphomethylphosphonic Acid-Guanylate Ester

> <CHEMICAL_FORMULA>
C11H18N5O13P3

> <MOLECULAR_WEIGHT>
521.2076

> <EXACT_MASS>
521.011395223

> <IUPAC_NAME>
({[({[(2S,3R,4R,5R)-5-(2-amino-6-oxo-6,9-dihydro-1H-purin-9-yl)-3,4-dihydroxyoxolan-2-yl]methoxy}(hydroxy)phosphoryl)oxy](hydroxy)phosphoryl}methyl)phosphonic acid

> <IUPAC_TRADITIONAL_NAME>
({[(2S,3R,4R,5R)-5-(2-amino-6-oxo-1H-purin-9-yl)-3,4-dihydroxyoxolan-2-yl]methoxy(hydroxy)phosphoryl}oxy(hydroxy)phosphoryl)methylphosphonic acid

> <INCHI_IDENTIFIER>
InChI=1S/C11H18N5O13P3/c12-11-14-8-5(9(19)15-11)13-2-16(8)10-7(18)6(17)4(28-10)1-27-32(25,26)29-31(23,24)3-30(20,21)22/h2,4,6-7,10,17-18H,1,3H2,(H,23,24)(H,25,26)(H2,20,21,22)(H3,12,14,15,19)/t4-,6-,7+,10+/m0/s1

> <INCHI_KEY>
InChIKey=PHBDHXOBFUBCJD-FCIPNVEPSA-N

> <SMILES>
NC1=NC2=C(N=CN2[C@@H]2O[C@@H](CO[P@@](O)(=O)O[P@@](O)(=O)CP(O)(O)=O)[C@H](O)[C@H]2O)C(=O)N1

> <JCHEM_ACCEPTOR_COUNT>
14

> <JCHEM_DONOR_COUNT>
8

> <JCHEM_ACIDIC_PKA>
1.65

> <JCHEM_BASIC_PKA>
1.14

> <JCHEM_PHYSIOLOGICAL_CHARGE>
-3

> <ALOGPS_LOGP>
-1

> <JCHEM_LOGP>
-4.5

> <ALOGPS_LOGS>
-1.8

> <JCHEM_POLARIZABILITY>
40.45

> <JCHEM_POLAR_SURFACE_AREA>
285.58

> <JCHEM_REFRACTIVITY>
99.59

> <JCHEM_ROTATABLE_BOND_COUNT>
8

> <ALOGPS_SOLUBILITY>
8.94e+00 g/l __ 

$$$$
