
  Mrv0541 02231216532D          

  7  6  0  0  0  0            999 V2000
    1.2375    0.7145    0.0000 N    0  0  0  0  0  0  0  0  0  0  0  0
    0.8250    0.0000    0.0000 Co   0  1  0  0  0  0  0  0  0  0  0  0
    0.4125   -0.7145    0.0000 N    0  0  0  0  0  0  0  0  0  0  0  0
    1.2375   -0.7145    0.0000 N    0  0  0  0  0  0  0  0  0  0  0  0
    1.6500    0.0000    0.0000 N    0  0  0  0  0  0  0  0  0  0  0  0
    0.4125    0.7145    0.0000 N    0  0  0  0  0  0  0  0  0  0  0  0
    0.0000    0.0000    0.0000 N    0  0  0  0  0  0  0  0  0  0  0  0
  1  2  1  0  0  0  0
  2  3  1  0  0  0  0
  2  4  1  0  0  0  0
  2  5  1  0  0  0  0
  2  6  1  0  0  0  0
  2  7  1  0  0  0  0
M  END
> <DRUGBANK_ID>
DB03350

> <DRUG_GROUPS>
experimental

> <GENERIC_NAME>
Cobalt Hexammine Ion

> <CHEMICAL_FORMULA>
CoH12N6

> <MOLECULAR_WEIGHT>
155.0687

> <EXACT_MASS>
155.045544608

> <IUPAC_NAME>
hexaaminocobalttris(ylium)

> <IUPAC_TRADITIONAL_NAME>
cobalt hexammine ion

> <INCHI_IDENTIFIER>
InChI=1S/Co.6H2N/h;6*1H2/q+9;6*-1

> <INCHI_KEY>
InChIKey=QRZXATGLRMBRQI-UHFFFAOYSA-N

> <SMILES>
N[Co+3](N)(N)(N)(N)N

> <JCHEM_ACCEPTOR_COUNT>
6

> <JCHEM_DONOR_COUNT>
6

> <JCHEM_BASIC_PKA>
4.85

> <JCHEM_PHYSIOLOGICAL_CHARGE>
3

> <JCHEM_LOGP>
-2.4

> <JCHEM_POLARIZABILITY>
12.11

> <JCHEM_POLAR_SURFACE_AREA>
156.12

> <JCHEM_REFRACTIVITY>
31.7

> <JCHEM_ROTATABLE_BOND_COUNT>
0 __ 

$$$$
