
  Mrv0541 02231216572D          

 33 35  0  0  1  0            999 V2000
   -2.6664   -1.7605    0.0000 C   0  0  0  0  0  0  0  0  0  0  0  0
   -2.2539   -2.4750    0.0000 O   0  0  0  0  0  0  0  0  0  0  0  0
   -1.4289   -2.4750    0.0000 C   0  0  0  0  0  0  0  0  0  0  0  0
   -1.0164   -1.7605    0.0000 O   0  0  0  0  0  0  0  0  0  0  0  0
   -1.0164   -3.1895    0.0000 C   0  0  1  0  0  0  0  0  0  0  0  0
   -1.4289   -3.9039    0.0000 C   0  0  0  0  0  0  0  0  0  0  0  0
   -2.2539   -3.9039    0.0000 C   0  0  0  0  0  0  0  0  0  0  0  0
   -2.6664   -4.6184    0.0000 C   0  0  0  0  0  0  0  0  0  0  0  0
   -3.4914   -4.6184    0.0000 C   0  0  0  0  0  0  0  0  0  0  0  0
   -3.9039   -3.9039    0.0000 C   0  0  0  0  0  0  0  0  0  0  0  0
   -3.4914   -3.1895    0.0000 C   0  0  0  0  0  0  0  0  0  0  0  0
   -2.6664   -3.1895    0.0000 C   0  0  0  0  0  0  0  0  0  0  0  0
   -4.7289   -3.9039    0.0000 C   0  0  0  0  0  0  0  0  0  0  0  0
   -5.5539   -3.9039    0.0000 C   0  0  0  0  0  0  0  0  0  0  0  0
   -6.3789   -3.9039    0.0000 C   0  0  0  0  0  0  0  0  0  0  0  0
   -6.7914   -4.6184    0.0000 C   0  0  0  0  0  0  0  0  0  0  0  0
   -7.6164   -4.6184    0.0000 C   0  0  0  0  0  0  0  0  0  0  0  0
   -8.0289   -3.9039    0.0000 C   0  0  0  0  0  0  0  0  0  0  0  0
   -7.6164   -3.1895    0.0000 C   0  0  0  0  0  0  0  0  0  0  0  0
   -6.7914   -3.1895    0.0000 C   0  0  0  0  0  0  0  0  0  0  0  0
   -0.1914   -3.1895    0.0000 N   0  0  0  0  0  0  0  0  0  0  0  0
    0.2211   -2.4750    0.0000 C   0  0  0  0  0  0  0  0  0  0  0  0
   -0.1914   -1.7605    0.0000 O   0  0  0  0  0  0  0  0  0  0  0  0
    1.0461   -2.4750    0.0000 C   0  0  0  0  0  0  0  0  0  0  0  0
    1.4586   -1.7605    0.0000 C   0  0  2  0  0  0  0  0  0  0  0  0
    1.0461   -1.0461    0.0000 C   0  0  0  0  0  0  0  0  0  0  0  0
    1.4586   -0.3316    0.0000 C   0  0  0  0  0  0  0  0  0  0  0  0
    2.2836   -0.3316    0.0000 C   0  0  0  0  0  0  0  0  0  0  0  0
    2.6961   -1.0461    0.0000 N   0  0  0  0  0  0  0  0  0  0  0  0
    2.2836   -1.7605    0.0000 C   0  0  0  0  0  0  0  0  0  0  0  0
    3.5211   -1.0461    0.0000 C   0  0  0  0  0  0  0  0  0  0  0  0
    3.9336   -0.3316    0.0000 N   0  0  0  0  0  0  0  0  0  0  0  0
    3.9336   -1.7605    0.0000 N   0  0  0  0  0  0  0  0  0  0  0  0
  1  2  1  0  0  0  0
  2  3  1  0  0  0  0
  3  4  2  0  0  0  0
  3  5  1  0  0  0  0
  5  6  1  0  0  0  0
  6  7  1  0  0  0  0
  7  8  2  0  0  0  0
  8  9  1  0  0  0  0
  9 10  2  0  0  0  0
 10 11  1  0  0  0  0
 11 12  2  0  0  0  0
  7 12  1  0  0  0  0
 10 13  1  0  0  0  0
 13 14  3  0  0  0  0
 14 15  1  0  0  0  0
 15 16  2  0  0  0  0
 16 17  1  0  0  0  0
 17 18  2  0  0  0  0
 18 19  1  0  0  0  0
 19 20  2  0  0  0  0
 15 20  1  0  0  0  0
  5 21  1  6  0  0  0
 21 22  1  0  0  0  0
 22 23  2  0  0  0  0
 22 24  1  0  0  0  0
 25 24  1  6  0  0  0
 25 26  1  0  0  0  0
 26 27  1  0  0  0  0
 27 28  1  0  0  0  0
 28 29  1  0  0  0  0
 29 30  1  0  0  0  0
 25 30  1  0  0  0  0
 29 31  1  0  0  0  0
 31 32  1  0  0  0  0
 31 33  2  0  0  0  0
M  END
> <DRUGBANK_ID>
DB03453

> <DRUG_GROUPS>
experimental

> <GENERIC_NAME>
(R)-N-[2-[1-(Aminoiminomethyl)-3-Piperidinyl]-1-Oxoethyl]-4-(Phenylethynyl)-L-Phenylalanine Methylester

> <CHEMICAL_FORMULA>
C26H30N4O3

> <MOLECULAR_WEIGHT>
446.5414

> <EXACT_MASS>
446.231790846

> <IUPAC_NAME>
methyl (2R)-2-{2-[(3S)-1-carbamimidoylpiperidin-3-yl]acetamido}-3-[4-(2-phenylethynyl)phenyl]propanoate

> <IUPAC_TRADITIONAL_NAME>
methyl (2R)-2-{2-[(3S)-1-carbamimidoylpiperidin-3-yl]acetamido}-3-[4-(2-phenylethynyl)phenyl]propanoate

> <INCHI_IDENTIFIER>
InChI=1S/C26H30N4O3/c1-33-25(32)23(29-24(31)17-22-8-5-15-30(18-22)26(27)28)16-21-13-11-20(12-14-21)10-9-19-6-3-2-4-7-19/h2-4,6-7,11-14,22-23H,5,8,15-18H2,1H3,(H3,27,28)(H,29,31)/t22-,23+/m0/s1

> <INCHI_KEY>
InChIKey=MRNGXYMKYHNMLV-XZOQPEGZSA-N

> <SMILES>
COC(=O)[C@@H](CC1=CC=C(C=C1)C#CC1=CC=CC=C1)NC(=O)C[C@@H]1CCCN(C1)C(N)=N

> <JCHEM_ACCEPTOR_COUNT>
5

> <JCHEM_DONOR_COUNT>
3

> <JCHEM_ACIDIC_PKA>
12.4

> <JCHEM_BASIC_PKA>
11.87

> <JCHEM_PHYSIOLOGICAL_CHARGE>
1

> <ALOGPS_LOGP>
2.74

> <JCHEM_LOGP>
2.63

> <ALOGPS_LOGS>
-4.7

> <JCHEM_POLARIZABILITY>
49.75

> <JCHEM_POLAR_SURFACE_AREA>
108.51

> <JCHEM_REFRACTIVITY>
133.33

> <JCHEM_ROTATABLE_BOND_COUNT>
9

> <ALOGPS_SOLUBILITY>
8.58e-03 g/l __ 

$$$$
