
  Mrv0541 02231217092D          

 36 38  0  0  1  0            999 V2000
   -3.2020   -2.2726    0.0000 C   0  0  0  0  0  0  0  0  0  0  0  0
   -2.7171   -2.9400    0.0000 C   0  0  0  0  0  0  0  0  0  0  0  0
   -1.8966   -2.8538    0.0000 C   0  0  0  0  0  0  0  0  0  0  0  0
   -1.4117   -3.5212    0.0000 N   0  0  0  0  0  0  0  0  0  0  0  0
   -0.5912   -3.4350    0.0000 C   0  0  1  0  0  0  0  0  0  0  0  0
   -0.1787   -2.7205    0.0000 C   0  0  0  0  0  0  0  0  0  0  0  0
    0.6282   -2.8920    0.0000 C   0  0  1  0  0  0  0  0  0  0  0  0
    1.2413   -2.3400    0.0000 O   0  0  0  0  0  0  0  0  0  0  0  0
    0.7145   -3.7125    0.0000 C   0  0  2  0  0  0  0  0  0  0  0  0
    1.4289   -4.1250    0.0000 C   0  0  0  0  0  0  0  0  0  0  0  0
    2.1434   -3.7125    0.0000 O   0  0  0  0  0  0  0  0  0  0  0  0
    2.8579   -4.1250    0.0000 P   0  0  2  0  0  0  0  0  0  0  0  0
    3.2704   -3.4105    0.0000 O   0  0  0  0  0  0  0  0  0  0  0  0
    2.4454   -4.8395    0.0000 O   0  0  0  0  0  0  0  0  0  0  0  0
    3.5724   -4.5375    0.0000 O   0  0  0  0  0  0  0  0  0  0  0  0
    4.2868   -4.1250    0.0000 P   0  0  1  0  0  0  0  0  0  0  0  0
    3.8743   -3.4105    0.0000 O   0  0  0  0  0  0  0  0  0  0  0  0
    4.6993   -4.8395    0.0000 O   0  0  0  0  0  0  0  0  0  0  0  0
    5.0013   -3.7125    0.0000 O   0  0  0  0  0  0  0  0  0  0  0  0
    5.7158   -4.1250    0.0000 C   0  0  1  0  0  0  0  0  0  0  0  0
    6.4302   -3.7125    0.0000 O   0  0  0  0  0  0  0  0  0  0  0  0
    7.1447   -4.1250    0.0000 C   0  0  1  0  0  0  0  0  0  0  0  0
    7.8592   -3.7125    0.0000 C   0  0  0  0  0  0  0  0  0  0  0  0
    8.5737   -4.1250    0.0000 O   0  0  0  0  0  0  0  0  0  0  0  0
    7.1447   -4.9500    0.0000 C   0  0  2  0  0  0  0  0  0  0  0  0
    7.8592   -5.3625    0.0000 O   0  0  0  0  0  0  0  0  0  0  0  0
    6.4302   -5.3625    0.0000 C   0  0  1  0  0  0  0  0  0  0  0  0
    6.4302   -6.1875    0.0000 O   0  0  0  0  0  0  0  0  0  0  0  0
    5.7158   -4.9500    0.0000 C   0  0  2  0  0  0  0  0  0  0  0  0
    5.0013   -5.3625    0.0000 O   0  0  0  0  0  0  0  0  0  0  0  0
   -0.0392   -4.0481    0.0000 O   0  0  0  0  0  0  0  0  0  0  0  0
   -1.7473   -4.2749    0.0000 C   0  0  0  0  0  0  0  0  0  0  0  0
   -1.2624   -4.9423    0.0000 O   0  0  0  0  0  0  0  0  0  0  0  0
   -2.5678   -4.3611    0.0000 N   0  0  0  0  0  0  0  0  0  0  0  0
   -3.0527   -3.6937    0.0000 C   0  0  0  0  0  0  0  0  0  0  0  0
   -3.8732   -3.7799    0.0000 O   0  0  0  0  0  0  0  0  0  0  0  0
  1  2  1  0  0  0  0
  2  3  2  0  0  0  0
  3  4  1  0  0  0  0
  5  4  1  1  0  0  0
  5  6  1  0  0  0  0
  6  7  1  0  0  0  0
  7  8  1  1  0  0  0
  7  9  1  0  0  0  0
  9 10  1  6  0  0  0
 10 11  1  0  0  0  0
 12 11  1  1  0  0  0
 12 13  1  6  0  0  0
 12 14  2  0  0  0  0
 12 15  1  0  0  0  0
 16 15  1  6  0  0  0
 16 17  1  1  0  0  0
 16 18  2  0  0  0  0
 16 19  1  0  0  0  0
 20 19  1  1  0  0  0
 20 21  1  0  0  0  0
 21 22  1  0  0  0  0
 22 23  1  1  0  0  0
 23 24  1  0  0  0  0
 22 25  1  0  0  0  0
 25 26  1  6  0  0  0
 25 27  1  0  0  0  0
 27 28  1  1  0  0  0
 27 29  1  0  0  0  0
 20 29  1  0  0  0  0
 29 30  1  6  0  0  0
  9 31  1  0  0  0  0
  5 31  1  0  0  0  0
  4 32  1  0  0  0  0
 32 33  2  0  0  0  0
 32 34  1  0  0  0  0
 34 35  1  0  0  0  0
  2 35  1  0  0  0  0
 35 36  2  0  0  0  0
M  END
> <DRUGBANK_ID>
DB03751

> <DRUG_GROUPS>
experimental

> <GENERIC_NAME>
2'deoxy-Thymidine-5'-Diphospho-Alpha-D-Glucose

> <CHEMICAL_FORMULA>
C16H26N2O16P2

> <MOLECULAR_WEIGHT>
564.329

> <EXACT_MASS>
564.075755818

> <IUPAC_NAME>
{[hydroxy({[(2R,3S,4R,5R,6S)-3,4,5-trihydroxy-6-(hydroxymethyl)oxan-2-yl]oxy})phosphoryl]oxy}({[(2S,3R,5R)-3-hydroxy-5-(5-methyl-2,4-dioxo-1,2,3,4-tetrahydropyrimidin-1-yl)oxolan-2-yl]methoxy})phosphinic acid

> <IUPAC_TRADITIONAL_NAME>
[(2S,3R,5R)-3-hydroxy-5-(5-methyl-2,4-dioxo-3H-pyrimidin-1-yl)oxolan-2-yl]methoxy({hydroxy[(2R,3S,4R,5R,6S)-3,4,5-trihydroxy-6-(hydroxymethyl)oxan-2-yl]oxyphosphoryl}oxy)phosphinic acid

> <INCHI_IDENTIFIER>
InChI=1S/C16H26N2O16P2/c1-6-3-18(16(25)17-14(6)24)10-2-7(20)9(31-10)5-30-35(26,27)34-36(28,29)33-15-13(23)12(22)11(21)8(4-19)32-15/h3,7-13,15,19-23H,2,4-5H2,1H3,(H,26,27)(H,28,29)(H,17,24,25)/t7-,8+,9+,10-,11+,12-,13+,15-/m1/s1

> <INCHI_KEY>
InChIKey=YSYKRGRSMLTJNL-LKRVTYCLSA-N

> <SMILES>
CC1=CN([C@H]2C[C@@H](O)[C@H](CO[P@](O)(=O)O[P@@](O)(=O)O[C@H]3O[C@@H](CO)[C@H](O)[C@@H](O)[C@@H]3O)O2)C(=O)NC1=O

> <JCHEM_ACCEPTOR_COUNT>
13

> <JCHEM_DONOR_COUNT>
8

> <JCHEM_ACIDIC_PKA>
1.73

> <JCHEM_BASIC_PKA>
-3

> <JCHEM_PHYSIOLOGICAL_CHARGE>
-2

> <ALOGPS_LOGP>
-1.2

> <JCHEM_LOGP>
-3.7

> <ALOGPS_LOGS>
-1.7

> <JCHEM_POLARIZABILITY>
47.25

> <JCHEM_POLAR_SURFACE_AREA>
271.31

> <JCHEM_REFRACTIVITY>
109.3

> <JCHEM_ROTATABLE_BOND_COUNT>
9

> <ALOGPS_SOLUBILITY>
1.12e+01 g/l __ 

$$$$
