
  Mrv0541 02231216472D          

 55 61  0  0  1  0            999 V2000
    6.8104    0.9185    0.0000 C   0  0  0  0  0  0  0  0  0  0  0  0
    6.5282    0.1433    0.0000 C   0  0  0  0  0  0  0  0  0  0  0  0
    5.7158    0.0000    0.0000 C   0  0  1  0  0  0  0  0  0  0  0  0
    5.9979   -0.7752    0.0000 O   0  0  0  0  0  0  0  0  0  0  0  0
    5.7158    0.8250    0.0000 C   0  0  0  0  0  0  0  0  0  0  0  0
    5.0013    1.2375    0.0000 C   0  0  2  0  0  0  0  0  0  0  0  0
    5.0013    2.0625    0.0000 O   0  0  0  0  0  0  0  0  0  0  0  0
    5.7158    2.4750    0.0000 C   0  0  1  0  0  0  0  0  0  0  0  0
    5.7158    3.3000    0.0000 C   0  0  0  0  0  0  0  0  0  0  0  0
    6.4302    3.7125    0.0000 C   0  0  2  0  0  0  0  0  0  0  0  0
    7.1447    3.3000    0.0000 C   0  0  2  0  0  0  0  0  0  0  0  0
    7.8592    3.7125    0.0000 O   0  0  0  0  0  0  0  0  0  0  0  0
    8.5737    3.3000    0.0000 C   0  0  1  0  0  0  0  0  0  0  0  0
    9.2881    3.7125    0.0000 C   0  0  0  0  0  0  0  0  0  0  0  0
   10.0026    3.3000    0.0000 C   0  0  1  0  0  0  0  0  0  0  0  0
   10.7171    3.7125    0.0000 O   0  0  0  0  0  0  0  0  0  0  0  0
   10.0026    2.4750    0.0000 C   0  0  1  0  0  0  0  0  0  0  0  0
   10.7171    2.0625    0.0000 O   0  0  0  0  0  0  0  0  0  0  0  0
   10.7171    1.2375    0.0000 C   0  0  1  0  0  0  0  0  0  0  0  0
   11.4315    0.8250    0.0000 C   0  0  0  0  0  0  0  0  0  0  0  0
   11.4315    0.0000    0.0000 C   0  0  0  0  0  0  0  0  0  0  0  0
   10.7171   -0.4125    0.0000 C   0  0  0  0  0  0  0  0  0  0  0  0
   10.7171   -1.2375    0.0000 O   0  0  0  0  0  0  0  0  0  0  0  0
   10.0026    0.0000    0.0000 C   0  0  2  0  0  0  0  0  0  0  0  0
    9.2881   -0.4125    0.0000 C   0  0  0  0  0  0  0  0  0  0  0  0
   10.0026    0.8250    0.0000 O   0  0  0  0  0  0  0  0  0  0  0  0
    9.2881    2.0625    0.0000 C   0  0  1  0  0  0  0  0  0  0  0  0
    9.2881    1.2375    0.0000 C   0  0  0  0  0  0  0  0  0  0  0  0
    8.5737    2.4750    0.0000 O   0  0  0  0  0  0  0  0  0  0  0  0
    7.1447    2.4750    0.0000 C   0  0  1  0  0  0  0  0  0  0  0  0
    7.8592    2.0625    0.0000 C   0  0  0  0  0  0  0  0  0  0  0  0
    6.4302    2.0625    0.0000 O   0  0  0  0  0  0  0  0  0  0  0  0
    6.4302    4.5375    0.0000 N   0  0  0  0  0  0  0  0  0  0  0  0
    7.1447    4.9500    0.0000 C   0  0  0  0  0  0  0  0  0  0  0  0
    5.7158    4.9500    0.0000 C   0  0  0  0  0  0  0  0  0  0  0  0
    4.2868    0.8250    0.0000 C   0  0  0  0  0  0  0  0  0  0  0  0
    3.5724    1.2375    0.0000 C   0  0  0  0  0  0  0  0  0  0  0  0
    3.5724    2.0625    0.0000 O   0  0  0  0  0  0  0  0  0  0  0  0
    2.8579    0.8250    0.0000 C   0  0  0  0  0  0  0  0  0  0  0  0
    2.8579    0.0000    0.0000 C   0  0  0  0  0  0  0  0  0  0  0  0
    3.5724   -0.4125    0.0000 C   0  0  0  0  0  0  0  0  0  0  0  0
    4.2868    0.0000    0.0000 C   0  0  0  0  0  0  0  0  0  0  0  0
    5.0013   -0.4125    0.0000 C   0  0  2  0  0  0  0  0  0  0  0  0
    5.0013   -1.2375    0.0000 O   0  0  0  0  0  0  0  0  0  0  0  0
    2.1434   -0.4125    0.0000 C   0  0  0  0  0  0  0  0  0  0  0  0
    2.1434   -1.2375    0.0000 O   0  0  0  0  0  0  0  0  0  0  0  0
    1.4289    0.0000    0.0000 C   0  0  0  0  0  0  0  0  0  0  0  0
    0.7145   -0.4125    0.0000 C   0  0  0  0  0  0  0  0  0  0  0  0
    0.0000    0.0000    0.0000 C   0  0  0  0  0  0  0  0  0  0  0  0
    0.0000    0.8250    0.0000 C   0  0  0  0  0  0  0  0  0  0  0  0
    0.7145    1.2375    0.0000 C   0  0  0  0  0  0  0  0  0  0  0  0
    0.7145    2.0625    0.0000 O   0  0  0  0  0  0  0  0  0  0  0  0
    1.4289    0.8250    0.0000 C   0  0  0  0  0  0  0  0  0  0  0  0
    2.1434    1.2375    0.0000 C   0  0  0  0  0  0  0  0  0  0  0  0
    2.1434    2.0625    0.0000 O   0  0  0  0  0  0  0  0  0  0  0  0
  1  2  1  0  0  0  0
  3  2  1  6  0  0  0
  3  4  1  1  0  0  0
  3  5  1  0  0  0  0
  5  6  1  0  0  0  0
  6  7  1  1  0  0  0
  8  7  1  1  0  0  0
  8  9  1  0  0  0  0
  9 10  1  0  0  0  0
 10 11  1  0  0  0  0
 11 12  1  6  0  0  0
 13 12  1  1  0  0  0
 13 14  1  0  0  0  0
 14 15  1  0  0  0  0
 15 16  1  1  0  0  0
 15 17  1  0  0  0  0
 17 18  1  1  0  0  0
 19 18  1  1  0  0  0
 19 20  1  0  0  0  0
 20 21  1  0  0  0  0
 21 22  1  0  0  0  0
 22 23  2  0  0  0  0
 22 24  1  0  0  0  0
 24 25  1  6  0  0  0
 24 26  1  0  0  0  0
 19 26  1  0  0  0  0
 17 27  1  0  0  0  0
 27 28  1  1  0  0  0
 27 29  1  0  0  0  0
 13 29  1  0  0  0  0
 11 30  1  0  0  0  0
 30 31  1  1  0  0  0
 30 32  1  0  0  0  0
  8 32  1  0  0  0  0
 10 33  1  1  0  0  0
 33 34  1  0  0  0  0
 33 35  1  0  0  0  0
  6 36  1  0  0  0  0
 36 37  2  0  0  0  0
 37 38  1  0  0  0  0
 37 39  1  0  0  0  0
 39 40  2  0  0  0  0
 40 41  1  0  0  0  0
 41 42  2  0  0  0  0
 36 42  1  0  0  0  0
 42 43  1  0  0  0  0
  3 43  1  0  0  0  0
 43 44  1  1  0  0  0
 40 45  1  0  0  0  0
 45 46  2  0  0  0  0
 45 47  1  0  0  0  0
 47 48  2  0  0  0  0
 48 49  1  0  0  0  0
 49 50  2  0  0  0  0
 50 51  1  0  0  0  0
 51 52  1  0  0  0  0
 51 53  2  0  0  0  0
 47 53  1  0  0  0  0
 53 54  1  0  0  0  0
 39 54  1  0  0  0  0
 54 55  2  0  0  0  0
M  END
> <DRUGBANK_ID>
DB03219

> <DRUG_GROUPS>
experimental

> <GENERIC_NAME>
11-Deoxy-Beta-Rhodomycin

> <CHEMICAL_FORMULA>
C40H51NO14

> <MOLECULAR_WEIGHT>
769.8312

> <EXACT_MASS>
769.330955345

> <IUPAC_NAME>
(7S,8R,10S)-10-{[(2R,4R,5S,6R)-4-(dimethylamino)-5-{[(2S,4R,5R,6R)-4-hydroxy-6-methyl-5-{[(2R,6S)-6-methyl-5-oxooxan-2-yl]oxy}oxan-2-yl]oxy}-6-methyloxan-2-yl]oxy}-8-ethyl-1,7,8,11-tetrahydroxy-5,7,8,9,10,12-hexahydrotetracene-5,12-dione

> <IUPAC_TRADITIONAL_NAME>
11-deoxy-Î²-rhodomycin

> <INCHI_IDENTIFIER>
InChI=1S/C40H51NO14/c1-7-40(49)16-27(32-22(39(40)48)13-21-33(36(32)47)35(46)31-20(34(21)45)9-8-10-25(31)43)53-29-14-23(41(5)6)37(18(3)51-29)55-30-15-26(44)38(19(4)52-30)54-28-12-11-24(42)17(2)50-28/h8-10,13,17-19,23,26-30,37-39,43-44,47-49H,7,11-12,14-16H2,1-6H3/t17-,18+,19+,23+,26+,27-,28-,29-,30-,37+,38-,39-,40+/m0/s1

> <INCHI_KEY>
InChIKey=OQDCVONZQOVIMP-LFGWXRNCSA-N

> <SMILES>
CC[C@@]1(O)C[C@H](O[C@H]2C[C@H]([C@H](O[C@H]3C[C@@H](O)[C@@H](O[C@H]4CCC(=O)[C@H](C)O4)[C@@H](C)O3)[C@@H](C)O2)N(C)C)C2=C(O)C3=C(C=C2[C@@H]1O)C(=O)C1=CC=CC(O)=C1C3=O

> <JCHEM_ACCEPTOR_COUNT>
15

> <JCHEM_DONOR_COUNT>
5

> <JCHEM_ACIDIC_PKA>
8.82

> <JCHEM_BASIC_PKA>
8.17

> <JCHEM_PHYSIOLOGICAL_CHARGE>
1

> <ALOGPS_LOGP>
2.74

> <JCHEM_LOGP>
4.05

> <ALOGPS_LOGS>
-3.4

> <JCHEM_POLARIZABILITY>
81.78

> <JCHEM_POLAR_SURFACE_AREA>
210.98

> <JCHEM_REFRACTIVITY>
194.22

> <JCHEM_ROTATABLE_BOND_COUNT>
8

> <ALOGPS_SOLUBILITY>
2.92e-01 g/l __ 

$$$$
