
  Mrv0541 02231216392D          

  4  3  0  0  0  0            999 V2000
    1.2375    0.7145    0.0000 Br   0  0  0  0  0  0  0  0  0  0  0  0
    0.8250    0.0000    0.0000 C    0  0  0  0  0  0  0  0  0  0  0  0
    1.2375   -0.7145    0.0000 Br   0  0  0  0  0  0  0  0  0  0  0  0
    0.0000    0.0000    0.0000 Br   0  0  0  0  0  0  0  0  0  0  0  0
  1  2  1  0  0  0  0
  2  3  1  0  0  0  0
  2  4  1  0  0  0  0
M  END
> <DRUGBANK_ID>
DB03054

> <DRUG_GROUPS>
experimental

> <GENERIC_NAME>
Tribromomethane

> <CHEMICAL_FORMULA>
CHBr3

> <MOLECULAR_WEIGHT>
252.731

> <EXACT_MASS>
249.762837973

> <IUPAC_NAME>
tribromomethane

> <IUPAC_TRADITIONAL_NAME>
tribromomethane

> <INCHI_IDENTIFIER>
InChI=1S/CHBr3/c2-1(3)4/h1H

> <INCHI_KEY>
InChIKey=DIKBFYAXUHHXCS-UHFFFAOYSA-N

> <SMILES>
BrC(Br)Br

> <JCHEM_ACCEPTOR_COUNT>
0

> <JCHEM_DONOR_COUNT>
0

> <JCHEM_PHYSIOLOGICAL_CHARGE>
0

> <ALOGPS_LOGP>
2.5

> <JCHEM_LOGP>
2.28

> <ALOGPS_LOGS>
-2.1

> <JCHEM_POLARIZABILITY>
11.76

> <JCHEM_POLAR_SURFACE_AREA>
0

> <JCHEM_REFRACTIVITY>
29.79

> <JCHEM_ROTATABLE_BOND_COUNT>
0

> <ALOGPS_SOLUBILITY>
1.88e+00 g/l __ 

$$$$
