
  Mrv0541 02231217002D          

 31 32  0  0  1  0            999 V2000
    0.8250    1.6500    0.0000 C   0  0  0  0  0  0  0  0  0  0  0  0
    0.0000    1.6500    0.0000 C   0  0  0  0  0  0  0  0  0  0  0  0
   -0.8250    1.6500    0.0000 C   0  0  0  0  0  0  0  0  0  0  0  0
    0.0000    0.8250    0.0000 O   0  0  0  0  0  0  0  0  0  0  0  0
    0.7145    0.4125    0.0000 N   0  0  0  0  0  0  0  0  0  0  0  0
    0.7145   -0.4125    0.0000 C   0  0  0  0  0  0  0  0  0  0  0  0
    1.4289   -0.8250    0.0000 C   0  0  0  0  0  0  0  0  0  0  0  0
    2.1434   -0.4125    0.0000 O   0  0  0  0  0  0  0  0  0  0  0  0
    1.4289   -1.6500    0.0000 N   0  0  0  0  0  0  0  0  0  0  0  0
    2.1434   -2.0625    0.0000 C   0  0  2  0  0  0  0  0  0  0  0  0
    2.8579   -1.6500    0.0000 C   0  0  0  0  0  0  0  0  0  0  0  0
    3.5724   -2.0625    0.0000 O   0  0  0  0  0  0  0  0  0  0  0  0
    2.1434   -2.8875    0.0000 C   0  0  2  0  0  0  0  0  0  0  0  0
    2.8579   -3.3000    0.0000 S   0  0  0  0  0  0  0  0  0  0  0  0
    2.8579   -4.1250    0.0000 C   0  0  0  0  0  0  0  0  0  0  0  0
    2.1434   -4.5375    0.0000 C   0  0  0  0  0  0  0  0  0  0  0  0
    2.1434   -5.3625    0.0000 C   0  0  0  0  0  0  0  0  0  0  0  0
    1.4289   -4.1250    0.0000 C   0  0  0  0  0  0  0  0  0  0  0  0
    1.4289   -3.3000    0.0000 N   0  0  0  0  0  0  0  0  0  0  0  0
    0.7145   -4.5375    0.0000 C   0  0  0  0  0  0  0  0  0  0  0  0
    0.0000   -4.1250    0.0000 O   0  0  0  0  0  0  0  0  0  0  0  0
    0.7145   -5.3625    0.0000 O   0  0  0  0  0  0  0  0  0  0  0  0
    0.0000   -0.8250    0.0000 C   0  0  0  0  0  0  0  0  0  0  0  0
   -0.0862   -1.6455    0.0000 C   0  0  0  0  0  0  0  0  0  0  0  0
   -0.8932   -1.8170    0.0000 S   0  0  0  0  0  0  0  0  0  0  0  0
   -1.3057   -1.1025    0.0000 C   0  0  0  0  0  0  0  0  0  0  0  0
   -2.1262   -1.0163    0.0000 N   0  0  0  0  0  0  0  0  0  0  0  0
   -0.7537   -0.4894    0.0000 N   0  0  0  0  0  0  0  0  0  0  0  0
    0.0000    2.4750    0.0000 C   0  0  0  0  0  0  0  0  0  0  0  0
   -0.7145    2.8875    0.0000 O   0  0  0  0  0  0  0  0  0  0  0  0
    0.7145    2.8875    0.0000 O   0  0  0  0  0  0  0  0  0  0  0  0
  1  2  1  0  0  0  0
  2  3  1  0  0  0  0
  2  4  1  0  0  0  0
  4  5  1  0  0  0  0
  5  6  2  0  0  0  0
  6  7  1  0  0  0  0
  7  8  2  0  0  0  0
  7  9  1  0  0  0  0
 10  9  1  6  0  0  0
 10 11  1  0  0  0  0
 11 12  2  0  0  0  0
 13 10  1  6  0  0  0
 13 14  1  0  0  0  0
 14 15  1  0  0  0  0
 15 16  1  0  0  0  0
 16 17  2  0  0  0  0
 16 18  1  0  0  0  0
 18 19  2  0  0  0  0
 13 19  1  0  0  0  0
 18 20  1  0  0  0  0
 20 21  1  0  0  0  0
 20 22  2  0  0  0  0
  6 23  1  0  0  0  0
 23 24  2  0  0  0  0
 24 25  1  0  0  0  0
 25 26  1  0  0  0  0
 26 27  1  0  0  0  0
 26 28  2  0  0  0  0
 23 28  1  0  0  0  0
  2 29  1  0  0  0  0
 29 30  1  0  0  0  0
 29 31  2  0  0  0  0
M  END
> <DRUGBANK_ID>
DB03530

> <DRUG_GROUPS>
experimental

> <GENERIC_NAME>
Acylated Ceftazidime

> <CHEMICAL_FORMULA>
C17H19N5O7S2

> <MOLECULAR_WEIGHT>
469.492

> <EXACT_MASS>
469.072589367

> <IUPAC_NAME>
(2S)-2-[(1R)-1-[(2E)-2-(2-amino-1,3-thiazol-4-yl)-2-[(1-carboxy-1-methylethoxy)imino]acetamido]-2-oxoethyl]-5-methylidene-5,6-dihydro-2H-1,3-thiazine-4-carboxylic acid

> <IUPAC_TRADITIONAL_NAME>
acylated ceftazidime

> <INCHI_IDENTIFIER>
InChI=1S/C17H19N5O7S2/c1-7-5-30-13(21-10(7)14(25)26)8(4-23)19-12(24)11(9-6-31-16(18)20-9)22-29-17(2,3)15(27)28/h4,6,8,13H,1,5H2,2-3H3,(H2,18,20)(H,19,24)(H,25,26)(H,27,28)/b22-11+/t8-,13+/m1/s1

> <INCHI_KEY>
InChIKey=VEHPZKIFULQYFS-BQFDAFGASA-N

> <SMILES>
O=C[C@@H](NC(=O)C(=N\OC(C)(C)C(O)=O)\C1=CSC(N)=N1)[C@@H]1SCC(=C)C(=N1)C(O)=O

> <JCHEM_ACCEPTOR_COUNT>
11

> <JCHEM_DONOR_COUNT>
4

> <JCHEM_ACIDIC_PKA>
2.84

> <JCHEM_BASIC_PKA>
4.3

> <JCHEM_PHYSIOLOGICAL_CHARGE>
-2

> <ALOGPS_LOGP>
0.37

> <JCHEM_LOGP>
0.63

> <ALOGPS_LOGS>
-4.1

> <JCHEM_POLARIZABILITY>
44.28

> <JCHEM_POLAR_SURFACE_AREA>
193.63

> <JCHEM_REFRACTIVITY>
109.93

> <JCHEM_ROTATABLE_BOND_COUNT>
9

> <ALOGPS_SOLUBILITY>
3.79e-02 g/l __ 

$$$$
