
  Mrv0541 02231216472D          

 26 29  0  0  0  0            999 V2000
   -3.0047    3.3847    0.0000 N   0  0  0  0  0  0  0  0  0  0  0  0
   -3.0047    2.5597    0.0000 C   0  0  0  0  0  0  0  0  0  0  0  0
   -3.7191    2.1472    0.0000 N   0  3  0  0  0  0  0  0  0  0  0  0
   -2.2902    2.1472    0.0000 C   0  0  0  0  0  0  0  0  0  0  0  0
   -1.5757    2.5597    0.0000 C   0  0  0  0  0  0  0  0  0  0  0  0
   -0.8612    2.1472    0.0000 C   0  0  0  0  0  0  0  0  0  0  0  0
   -0.8612    1.3222    0.0000 C   0  0  0  0  0  0  0  0  0  0  0  0
   -0.2481    0.7702    0.0000 N   0  0  0  0  0  0  0  0  0  0  0  0
   -0.5837    0.0165    0.0000 C   0  0  0  0  0  0  0  0  0  0  0  0
   -1.4042    0.1028    0.0000 N   0  0  0  0  0  0  0  0  0  0  0  0
   -1.5757    0.9097    0.0000 C   0  0  0  0  0  0  0  0  0  0  0  0
   -2.2902    1.3222    0.0000 C   0  0  0  0  0  0  0  0  0  0  0  0
   -0.1712   -0.6979    0.0000 C   0  0  0  0  0  0  0  0  0  0  0  0
   -0.5837   -1.4124    0.0000 O   0  0  0  0  0  0  0  0  0  0  0  0
    0.6538   -0.6979    0.0000 C   0  0  0  0  0  0  0  0  0  0  0  0
    1.1387   -0.0305    0.0000 N   0  0  0  0  0  0  0  0  0  0  0  0
    1.9233   -0.2854    0.0000 C   0  0  0  0  0  0  0  0  0  0  0  0
    2.6378    0.1271    0.0000 C   0  0  0  0  0  0  0  0  0  0  0  0
    3.3523   -0.2854    0.0000 C   0  0  0  0  0  0  0  0  0  0  0  0
    3.3523   -1.1104    0.0000 C   0  0  0  0  0  0  0  0  0  0  0  0
    2.6378   -1.5229    0.0000 C   0  0  0  0  0  0  0  0  0  0  0  0
    1.9233   -1.1104    0.0000 C   0  0  0  0  0  0  0  0  0  0  0  0
    1.1387   -1.3654    0.0000 N   0  0  0  0  0  0  0  0  0  0  0  0
    4.0668   -1.5229    0.0000 C   0  0  0  0  0  0  0  0  0  0  0  0
    4.7812   -1.1104    0.0000 N   0  0  0  0  0  0  0  0  0  0  0  0
    4.0668   -2.3479    0.0000 N   0  3  0  0  0  0  0  0  0  0  0  0
  1  2  1  0  0  0  0
  2  3  2  0  0  0  0
  2  4  1  0  0  0  0
  4  5  4  0  0  0  0
  5  6  4  0  0  0  0
  6  7  4  0  0  0  0
  7  8  4  0  0  0  0
  8  9  4  0  0  0  0
  9 10  4  0  0  0  0
 10 11  4  0  0  0  0
  7 11  4  0  0  0  0
 11 12  4  0  0  0  0
  4 12  4  0  0  0  0
  9 13  1  0  0  0  0
 13 14  2  0  0  0  0
 13 15  1  0  0  0  0
 15 16  4  0  0  0  0
 16 17  4  0  0  0  0
 17 18  4  0  0  0  0
 18 19  4  0  0  0  0
 19 20  4  0  0  0  0
 20 21  4  0  0  0  0
 21 22  4  0  0  0  0
 17 22  4  0  0  0  0
 22 23  4  0  0  0  0
 15 23  4  0  0  0  0
 20 24  1  0  0  0  0
 24 25  1  0  0  0  0
 24 26  2  0  0  0  0
M  END
> <DRUGBANK_ID>
DB03213

> <DRUG_GROUPS>
experimental

> <GENERIC_NAME>
Bis(5-Amidino-2-Benzimidazolyl)Methane Ketone

> <CHEMICAL_FORMULA>
C17H14N8O

> <MOLECULAR_WEIGHT>
346.3461

> <EXACT_MASS>
346.12905711

> <IUPAC_NAME>
{amino[2-({5-[amino(iminiumyl)methyl]-1,3-benzodiazol-2-yl}carbonyl)-1,3-benzodiazol-5-yl]methylidene}azanium

> <IUPAC_TRADITIONAL_NAME>
{amino[2-({5-[amino(iminio)methyl]-1,3-benzodiazol-2-yl}carbonyl)-1,3-benzodiazol-5-yl]methylidene}azanium

> <SMILES>
NC(=[NH2+])c1ccc2nc(nc2c1)C(=O)c1nc2ccc(cc2n1)C(N)=[NH2+]

> <JCHEM_ACCEPTOR_COUNT>
7

> <JCHEM_DONOR_COUNT>
4

> <JCHEM_BASIC_PKA>
11.04

> <JCHEM_PHYSIOLOGICAL_CHARGE>
2

> <ALOGPS_LOGP>
0.15

> <JCHEM_LOGP>
1.74

> <ALOGPS_LOGS>
-4.4

> <JCHEM_POLARIZABILITY>
36.64

> <JCHEM_POLAR_SURFACE_AREA>
171.85

> <JCHEM_REFRACTIVITY>
116.96

> <JCHEM_ROTATABLE_BOND_COUNT>
4

> <ALOGPS_SOLUBILITY>
1.63e-02 g/l __ 

$$$$
