
  Mrv0541 02231217012D          

 57 58  0  0  1  0            999 V2000
    5.0013  -11.1375    0.0000 N   0  0  0  0  0  0  0  0  0  0  0  0
    5.7158  -11.5500    0.0000 C   0  0  0  0  0  0  0  0  0  0  0  0
    5.7158  -12.3750    0.0000 O   0  0  0  0  0  0  0  0  0  0  0  0
    6.4302  -11.1375    0.0000 C   0  0  1  0  0  0  0  0  0  0  0  0
    6.4302  -10.3125    0.0000 C   0  0  0  0  0  0  0  0  0  0  0  0
    7.1447   -9.9000    0.0000 S   0  0  0  0  0  0  0  0  0  0  0  0
    7.1447  -11.5500    0.0000 N   0  0  0  0  0  0  0  0  0  0  0  0
    7.8592  -11.1375    0.0000 C   0  0  0  0  0  0  0  0  0  0  0  0
    7.8592  -10.3125    0.0000 O   0  0  0  0  0  0  0  0  0  0  0  0
    8.5737  -11.5500    0.0000 C   0  0  0  0  0  0  0  0  0  0  0  0
    9.2881  -11.1375    0.0000 C   0  0  0  0  0  0  0  0  0  0  0  0
   10.0026  -11.5500    0.0000 C   0  0  0  0  0  0  0  0  0  0  0  0
   10.7171  -11.1375    0.0000 C   0  0  0  0  0  0  0  0  0  0  0  0
   11.4315  -11.5500    0.0000 C   0  0  0  0  0  0  0  0  0  0  0  0
   12.1460  -11.1375    0.0000 N   0  0  0  0  0  0  0  0  0  0  0  0
   12.8605  -11.5500    0.0000 C   0  0  0  0  0  0  0  0  0  0  0  0
   12.8605  -12.3750    0.0000 O   0  0  0  0  0  0  0  0  0  0  0  0
   13.5749  -11.1375    0.0000 C   0  0  1  0  0  0  0  0  0  0  0  0
   13.5749  -10.3125    0.0000 C   0  0  0  0  0  0  0  0  0  0  0  0
   12.8605   -9.9000    0.0000 C   0  0  0  0  0  0  0  0  0  0  0  0
   12.1460  -10.3125    0.0000 C   0  0  0  0  0  0  0  0  0  0  0  0
   11.4315   -9.9000    0.0000 C   0  0  0  0  0  0  0  0  0  0  0  0
   11.4315   -9.0750    0.0000 C   0  0  0  0  0  0  0  0  0  0  0  0
   12.1460   -8.6625    0.0000 C   0  0  0  0  0  0  0  0  0  0  0  0
   12.8605   -9.0750    0.0000 C   0  0  0  0  0  0  0  0  0  0  0  0
   10.7171   -8.6625    0.0000 C   0  0  0  0  0  0  0  0  0  0  0  0
   11.1296   -7.9480    0.0000 F   0  0  0  0  0  0  0  0  0  0  0  0
   10.3046   -9.3770    0.0000 F   0  0  0  0  0  0  0  0  0  0  0  0
   10.0026   -8.2500    0.0000 P   0  0  0  0  0  0  0  0  0  0  0  0
   10.4151   -7.5355    0.0000 O   0  0  0  0  0  0  0  0  0  0  0  0
    9.5901   -8.9645    0.0000 O   0  0  0  0  0  0  0  0  0  0  0  0
    9.2881   -7.8375    0.0000 O   0  0  0  0  0  0  0  0  0  0  0  0
   14.2894  -11.5500    0.0000 N   0  0  0  0  0  0  0  0  0  0  0  0
   15.0039  -11.1375    0.0000 C   0  0  0  0  0  0  0  0  0  0  0  0
   15.0039  -10.3125    0.0000 O   0  0  0  0  0  0  0  0  0  0  0  0
   15.7184  -11.5500    0.0000 C   0  0  1  0  0  0  0  0  0  0  0  0
   15.7184  -12.3750    0.0000 C   0  0  0  0  0  0  0  0  0  0  0  0
   15.0039  -12.7875    0.0000 C   0  0  0  0  0  0  0  0  0  0  0  0
   15.0039  -13.6125    0.0000 O   0  0  0  0  0  0  0  0  0  0  0  0
   14.2894  -12.3750    0.0000 O   0  0  0  0  0  0  0  0  0  0  0  0
   16.4328  -11.1375    0.0000 N   0  0  0  0  0  0  0  0  0  0  0  0
   17.1473  -11.5500    0.0000 C   0  0  0  0  0  0  0  0  0  0  0  0
   17.1473  -12.3750    0.0000 O   0  0  0  0  0  0  0  0  0  0  0  0
   17.8618  -11.1375    0.0000 C   0  0  0  0  0  0  0  0  0  0  0  0
   18.5762  -11.5500    0.0000 C   0  0  0  0  0  0  0  0  0  0  0  0
   19.2907  -11.1375    0.0000 C   0  0  0  0  0  0  0  0  0  0  0  0
   20.0052  -11.5500    0.0000 C   0  0  0  0  0  0  0  0  0  0  0  0
   20.0052  -12.3750    0.0000 C   0  0  0  0  0  0  0  0  0  0  0  0
   19.2907  -12.7875    0.0000 C   0  0  0  0  0  0  0  0  0  0  0  0
   18.5762  -12.3750    0.0000 C   0  0  0  0  0  0  0  0  0  0  0  0
   20.7197  -12.7875    0.0000 C   0  0  0  0  0  0  0  0  0  0  0  0
   20.3072  -13.5020    0.0000 F   0  0  0  0  0  0  0  0  0  0  0  0
   21.1322  -12.0730    0.0000 F   0  0  0  0  0  0  0  0  0  0  0  0
   21.4341  -13.2000    0.0000 P   0  0  0  0  0  0  0  0  0  0  0  0
   22.1486  -13.6125    0.0000 O   0  0  0  0  0  0  0  0  0  0  0  0
   21.0216  -13.9145    0.0000 O   0  0  0  0  0  0  0  0  0  0  0  0
   21.8466  -12.4855    0.0000 O   0  0  0  0  0  0  0  0  0  0  0  0
  1  2  1  0  0  0  0
  2  3  2  0  0  0  0
  2  4  1  0  0  0  0
  4  5  1  0  0  0  0
  5  6  1  0  0  0  0
  4  7  1  1  0  0  0
  7  8  1  0  0  0  0
  8  9  2  0  0  0  0
  8 10  1  0  0  0  0
 10 11  1  0  0  0  0
 11 12  1  0  0  0  0
 12 13  1  0  0  0  0
 13 14  1  0  0  0  0
 14 15  1  0  0  0  0
 15 16  1  0  0  0  0
 16 17  2  0  0  0  0
 16 18  1  0  0  0  0
 18 19  1  0  0  0  0
 19 20  1  0  0  0  0
 20 21  2  0  0  0  0
 21 22  1  0  0  0  0
 22 23  2  0  0  0  0
 23 24  1  0  0  0  0
 24 25  2  0  0  0  0
 20 25  1  0  0  0  0
 23 26  1  0  0  0  0
 26 27  1  0  0  0  0
 26 28  1  0  0  0  0
 26 29  1  0  0  0  0
 29 30  1  0  0  0  0
 29 31  1  0  0  0  0
 29 32  2  0  0  0  0
 18 33  1  1  0  0  0
 33 34  1  0  0  0  0
 34 35  2  0  0  0  0
 34 36  1  0  0  0  0
 36 37  1  0  0  0  0
 37 38  1  0  0  0  0
 38 39  1  0  0  0  0
 38 40  2  0  0  0  0
 36 41  1  6  0  0  0
 41 42  1  0  0  0  0
 42 43  2  0  0  0  0
 42 44  1  0  0  0  0
 44 45  1  0  0  0  0
 45 46  2  0  0  0  0
 46 47  1  0  0  0  0
 47 48  2  0  0  0  0
 48 49  1  0  0  0  0
 49 50  2  0  0  0  0
 45 50  1  0  0  0  0
 48 51  1  0  0  0  0
 51 52  1  0  0  0  0
 51 53  1  0  0  0  0
 51 54  1  0  0  0  0
 54 55  1  0  0  0  0
 54 56  1  0  0  0  0
 54 57  2  0  0  0  0
M  END
> <DRUGBANK_ID>
DB03557

> <DRUG_GROUPS>
experimental

> <GENERIC_NAME>
N-{1-[5-(1-Carbamoyl-2-Mercapto-Ethylcarbamoyl)-Pentylcarbamoyl]-2-[4-(Difluoro-Phosphono-Methyl)-Phenyl]-Ethyl}-3-{2-[4-(Difluoro-Phosphono-Methyl)-Phenyl]-Acetylamino}-Succinamic Acid

> <CHEMICAL_FORMULA>
C32H41F4N5O13P2S

> <MOLECULAR_WEIGHT>
873.7

> <EXACT_MASS>
873.183292957

> <IUPAC_NAME>
(3R)-3-{[(1R)-1-[(5-{[(1S)-1-carbamoyl-2-sulfanylethyl]carbamoyl}pentyl)carbamoyl]-2-{4-[difluoro(phosphono)methyl]phenyl}ethyl]carbamoyl}-3-(2-{4-[difluoro(phosphono)methyl]phenyl}acetamido)propanoic acid

> <IUPAC_TRADITIONAL_NAME>
(3R)-3-{[(1R)-1-[(5-{[(1S)-1-carbamoyl-2-sulfanylethyl]carbamoyl}pentyl)carbamoyl]-2-{4-[difluoro(phosphono)methyl]phenyl}ethyl]carbamoyl}-3-(2-{4-[difluoro(phosphono)methyl]phenyl}acetamido)propanoic acid

> <INCHI_IDENTIFIER>
InChI=1S/C32H41F4N5O13P2S/c33-31(34,55(49,50)51)20-9-5-18(6-10-20)14-22(29(47)38-13-3-1-2-4-25(42)40-24(17-57)28(37)46)41-30(48)23(16-27(44)45)39-26(43)15-19-7-11-21(12-8-19)32(35,36)56(52,53)54/h5-12,22-24,57H,1-4,13-17H2,(H2,37,46)(H,38,47)(H,39,43)(H,40,42)(H,41,48)(H,44,45)(H2,49,50,51)(H2,52,53,54)/t22-,23-,24-/m1/s1

> <INCHI_KEY>
InChIKey=JNKZDIBIDJQPGC-WXFUMESZSA-N

> <SMILES>
NC(=O)[C@@H](CS)NC(=O)CCCCCNC(=O)[C@@H](CC1=CC=C(C=C1)C(F)(F)P(O)(O)=O)NC(=O)[C@@H](CC(O)=O)NC(=O)CC1=CC=C(C=C1)C(F)(F)P(O)(O)=O

> <JCHEM_ACCEPTOR_COUNT>
13

> <JCHEM_DONOR_COUNT>
11

> <JCHEM_ACIDIC_PKA>
0.19

> <JCHEM_BASIC_PKA>
-9.6

> <JCHEM_PHYSIOLOGICAL_CHARGE>
-5

> <ALOGPS_LOGP>
0.94

> <JCHEM_LOGP>
-0.77

> <ALOGPS_LOGS>
-4.9

> <JCHEM_POLARIZABILITY>
78.28

> <JCHEM_POLAR_SURFACE_AREA>
311.85

> <JCHEM_REFRACTIVITY>
194.36

> <JCHEM_ROTATABLE_BOND_COUNT>
23

> <ALOGPS_SOLUBILITY>
1.10e-02 g/l __ 

$$$$
