
  Mrv0541 02231216502D          

 22 23  0  0  1  0            999 V2000
   -1.4289    0.0000    0.0000 O   0  0  0  0  0  0  0  0  0  0  0  0
   -0.7145   -0.4125    0.0000 C   0  0  0  0  0  0  0  0  0  0  0  0
   -0.7145   -1.2375    0.0000 C   0  0  2  0  0  0  0  0  0  0  0  0
    0.0000   -1.6500    0.0000 O   0  0  0  0  0  0  0  0  0  0  0  0
    0.0000   -2.4750    0.0000 C   0  0  2  0  0  0  0  0  0  0  0  0
    0.7145   -2.8875    0.0000 O   0  0  0  0  0  0  0  0  0  0  0  0
    1.4289   -2.4750    0.0000 C   0  0  2  0  0  0  0  0  0  0  0  0
    1.4289   -1.6500    0.0000 C   0  0  1  0  0  0  0  0  0  0  0  0
    0.7145   -1.2375    0.0000 O   0  0  0  0  0  0  0  0  0  0  0  0
    2.1434   -1.2375    0.0000 C   0  0  0  0  0  0  0  0  0  0  0  0
    2.8579   -1.6500    0.0000 C   0  0  1  0  0  0  0  0  0  0  0  0
    3.5724   -1.2375    0.0000 O   0  0  0  0  0  0  0  0  0  0  0  0
    2.8579   -2.4750    0.0000 O   0  0  0  0  0  0  0  0  0  0  0  0
    2.1434   -2.8875    0.0000 C   0  0  2  0  0  0  0  0  0  0  0  0
    2.1434   -3.7125    0.0000 C   0  0  0  0  0  0  0  0  0  0  0  0
    1.4289   -4.1250    0.0000 O   0  0  0  0  0  0  0  0  0  0  0  0
   -0.7145   -2.8875    0.0000 C   0  0  1  0  0  0  0  0  0  0  0  0
   -0.7145   -3.7125    0.0000 O   0  0  0  0  0  0  0  0  0  0  0  0
   -1.4289   -2.4750    0.0000 C   0  0  2  0  0  0  0  0  0  0  0  0
   -2.1434   -2.8875    0.0000 O   0  0  0  0  0  0  0  0  0  0  0  0
   -1.4289   -1.6500    0.0000 C   0  0  1  0  0  0  0  0  0  0  0  0
   -2.1434   -1.2375    0.0000 O   0  0  0  0  0  0  0  0  0  0  0  0
  1  2  1  0  0  0  0
  3  2  1  6  0  0  0
  3  4  1  0  0  0  0
  4  5  1  0  0  0  0
  5  6  1  6  0  0  0
  7  6  1  6  0  0  0
  7  8  1  0  0  0  0
  8  9  1  1  0  0  0
  8 10  1  0  0  0  0
 10 11  1  0  0  0  0
 11 12  1  1  0  0  0
 11 13  1  0  0  0  0
 13 14  1  0  0  0  0
  7 14  1  0  0  0  0
 14 15  1  6  0  0  0
 15 16  1  0  0  0  0
  5 17  1  0  0  0  0
 17 18  1  1  0  0  0
 17 19  1  0  0  0  0
 19 20  1  6  0  0  0
 19 21  1  0  0  0  0
  3 21  1  0  0  0  0
 21 22  1  1  0  0  0
M  END
> <DRUGBANK_ID>
DB03281

> <DRUG_GROUPS>
experimental

> <GENERIC_NAME>
2'-Deoxymaltose

> <CHEMICAL_FORMULA>
C12H22O10

> <MOLECULAR_WEIGHT>
326.2971

> <EXACT_MASS>
326.121296924

> <IUPAC_NAME>
(2R,3S,4R,5R,6S)-2-{[(2R,3R,4S,6S)-4,6-dihydroxy-2-(hydroxymethyl)oxan-3-yl]oxy}-6-(hydroxymethyl)oxane-3,4,5-triol

> <IUPAC_TRADITIONAL_NAME>
2'-deoxymaltose

> <INCHI_IDENTIFIER>
InChI=1S/C12H22O10/c13-2-5-8(17)9(18)10(19)12(21-5)22-11-4(15)1-7(16)20-6(11)3-14/h4-19H,1-3H2/t4-,5-,6+,7-,8-,9+,10-,11+,12+/m0/s1

> <INCHI_KEY>
InChIKey=FDCIWBIYHZDLEG-BBBNVXSOSA-N

> <SMILES>
OC[C@@H]1O[C@H](O[C@@H]2[C@@H](O)C[C@@H](O)O[C@@H]2CO)[C@@H](O)[C@H](O)[C@H]1O

> <JCHEM_ACCEPTOR_COUNT>
10

> <JCHEM_DONOR_COUNT>
7

> <JCHEM_ACIDIC_PKA>
11.98

> <JCHEM_BASIC_PKA>
-3

> <JCHEM_PHYSIOLOGICAL_CHARGE>
0

> <ALOGPS_LOGP>
-3.2

> <JCHEM_LOGP>
-3.8

> <ALOGPS_LOGS>
0.22

> <JCHEM_POLARIZABILITY>
30.67

> <JCHEM_POLAR_SURFACE_AREA>
169.3

> <JCHEM_REFRACTIVITY>
66.83

> <JCHEM_ROTATABLE_BOND_COUNT>
4

> <ALOGPS_SOLUBILITY>
5.45e+02 g/l __ 

$$$$
