
  Mrv0541 02231216592D          

 11 11  0  0  0  0            999 V2000
    2.1434    2.0625    0.0000 C   0  0  0  0  0  0  0  0  0  0  0  0
    2.1434    1.2375    0.0000 O   0  0  0  0  0  0  0  0  0  0  0  0
    1.4289    0.8250    0.0000 C   0  0  0  0  0  0  0  0  0  0  0  0
    1.4289    0.0000    0.0000 C   0  0  0  0  0  0  0  0  0  0  0  0
    0.7145   -0.4125    0.0000 C   0  0  0  0  0  0  0  0  0  0  0  0
    0.7145   -1.2375    0.0000 C   0  0  0  0  0  0  0  0  0  0  0  0
    1.4289   -1.6500    0.0000 C   0  0  0  0  0  0  0  0  0  0  0  0
    0.0000    0.0000    0.0000 C   0  0  0  0  0  0  0  0  0  0  0  0
    0.0000    0.8250    0.0000 C   0  0  0  0  0  0  0  0  0  0  0  0
    0.7145    1.2375    0.0000 C   0  0  0  0  0  0  0  0  0  0  0  0
    0.7145    2.0625    0.0000 O   0  0  0  0  0  0  0  0  0  0  0  0
  1  2  1  0  0  0  0
  2  3  1  0  0  0  0
  3  4  2  0  0  0  0
  4  5  1  0  0  0  0
  5  6  1  0  0  0  0
  6  7  2  0  0  0  0
  5  8  2  0  0  0  0
  8  9  1  0  0  0  0
  9 10  2  0  0  0  0
  3 10  1  0  0  0  0
 10 11  1  0  0  0  0
M  END
> <DRUGBANK_ID>
DB03514

> <DRUG_GROUPS>
experimental

> <GENERIC_NAME>
2-Methoxy-4-Vinyl-Phenol

> <CHEMICAL_FORMULA>
C9H10O2

> <MOLECULAR_WEIGHT>
150.1745

> <EXACT_MASS>
150.068079564

> <IUPAC_NAME>
4-ethenyl-2-methoxyphenol

> <IUPAC_TRADITIONAL_NAME>
2-methoxy-4-vinyl-phenol

> <INCHI_IDENTIFIER>
InChI=1S/C9H10O2/c1-3-7-4-5-8(10)9(6-7)11-2/h3-6,10H,1H2,2H3

> <INCHI_KEY>
InChIKey=YOMSJEATGXXYPX-UHFFFAOYSA-N

> <SMILES>
COC1=CC(C=C)=CC=C1O

> <JCHEM_ACCEPTOR_COUNT>
2

> <JCHEM_DONOR_COUNT>
1

> <JCHEM_ACIDIC_PKA>
10.03

> <JCHEM_BASIC_PKA>
-4.9

> <JCHEM_PHYSIOLOGICAL_CHARGE>
0

> <ALOGPS_LOGP>
1.84

> <JCHEM_LOGP>
2.25

> <ALOGPS_LOGS>
-1.3

> <JCHEM_POLARIZABILITY>
15.99

> <JCHEM_POLAR_SURFACE_AREA>
29.46

> <JCHEM_REFRACTIVITY>
44.19

> <JCHEM_ROTATABLE_BOND_COUNT>
2

> <ALOGPS_SOLUBILITY>
7.42e+00 g/l __ 

$$$$
