
  Mrv0541 02231216372D          

 46 49  0  0  1  0            999 V2000
  -12.9064   -3.9341    0.0000 C   0  0  0  0  0  0  0  0  0  0  0  0
  -12.1527   -4.2696    0.0000 C   0  0  0  0  0  0  0  0  0  0  0  0
  -12.0665   -5.0901    0.0000 O   0  0  0  0  0  0  0  0  0  0  0  0
  -11.4853   -3.7847    0.0000 O   0  0  0  0  0  0  0  0  0  0  0  0
  -10.7316   -4.1203    0.0000 C   0  0  2  0  0  0  0  0  0  0  0  0
  -10.0641   -3.6354    0.0000 C   0  0  0  0  0  0  0  0  0  0  0  0
   -9.3105   -3.9709    0.0000 C   0  0  0  0  0  0  0  0  0  0  0  0
   -9.1109   -3.1704    0.0000 C   0  0  0  0  0  0  0  0  0  0  0  0
   -8.4875   -4.0285    0.0000 C   0  0  0  0  0  0  0  0  0  0  0  0
   -9.2242   -4.7914    0.0000 C   0  0  0  0  0  0  0  0  0  0  0  0
   -8.4706   -5.1270    0.0000 C   0  0  0  0  0  0  0  0  0  0  0  0
   -7.7169   -5.4625    0.0000 C   0  0  0  0  0  0  0  0  0  0  0  0
   -7.0494   -4.9776    0.0000 C   0  0  0  0  0  0  0  0  0  0  0  0
   -7.1357   -4.1571    0.0000 C   0  0  0  0  0  0  0  0  0  0  0  0
   -6.2958   -5.3131    0.0000 C   0  0  0  0  0  0  0  0  0  0  0  0
   -5.6283   -4.8282    0.0000 C   0  0  0  0  0  0  0  0  0  0  0  0
   -4.8747   -5.1638    0.0000 C   0  0  0  0  0  0  0  0  0  0  0  0
   -4.2072   -4.6789    0.0000 C   0  0  0  0  0  0  0  0  0  0  0  0
   -3.4535   -5.0144    0.0000 C   0  0  0  0  0  0  0  0  0  0  0  0
   -2.7861   -4.5295    0.0000 C   0  0  0  0  0  0  0  0  0  0  0  0
   -2.0324   -4.8651    0.0000 C   0  0  0  0  0  0  0  0  0  0  0  0
   -1.9462   -5.6855    0.0000 C   0  0  0  0  0  0  0  0  0  0  0  0
   -1.3650   -4.3801    0.0000 C   0  0  0  0  0  0  0  0  0  0  0  0
   -1.4512   -3.5596    0.0000 C   0  0  0  0  0  0  0  0  0  0  0  0
   -2.1657   -3.1471    0.0000 O   0  0  0  0  0  0  0  0  0  0  0  0
   -1.9942   -2.3402    0.0000 C   0  0  0  0  0  0  0  0  0  0  0  0
   -2.5462   -1.7271    0.0000 O   0  0  0  0  0  0  0  0  0  0  0  0
   -1.1737   -2.2539    0.0000 C   0  0  0  0  0  0  0  0  0  0  0  0
   -0.7612   -1.5395    0.0000 C   0  0  0  0  0  0  0  0  0  0  0  0
    0.0638   -1.5395    0.0000 C   0  0  0  0  0  0  0  0  0  0  0  0
    0.4763   -0.8250    0.0000 C   0  0  2  0  0  0  0  0  0  0  0  0
   -0.2382   -0.4125    0.0000 O   0  0  0  0  0  0  0  0  0  0  0  0
    0.4763    0.0000    0.0000 C   0  0  2  0  0  0  0  0  0  0  0  0
    0.0638    0.7145    0.0000 C   0  0  0  0  0  0  0  0  0  0  0  0
    1.1908    0.4125    0.0000 C   0  0  0  0  0  0  0  0  0  0  0  0
    1.9053    0.0000    0.0000 C   0  0  2  0  0  0  0  0  0  0  0  0
    2.6197    0.4125    0.0000 O   0  0  0  0  0  0  0  0  0  0  0  0
    1.9053   -0.8250    0.0000 C   0  0  0  0  0  0  0  0  0  0  0  0
    1.1908   -1.2375    0.0000 C   0  0  0  0  0  0  0  0  0  0  0  0
    1.5781   -1.9659    0.0000 C   0  0  0  0  0  0  0  0  0  0  0  0
    0.8035   -1.9659    0.0000 C   0  0  0  0  0  0  0  0  0  0  0  0
   -0.8381   -3.0076    0.0000 C   0  0  0  0  0  0  0  0  0  0  0  0
   -9.8917   -5.2763    0.0000 C   0  0  1  0  0  0  0  0  0  0  0  0
   -9.2982   -5.8494    0.0000 C   0  0  0  0  0  0  0  0  0  0  0  0
  -10.3530   -5.9603    0.0000 O   0  0  0  0  0  0  0  0  0  0  0  0
  -10.6453   -4.9408    0.0000 C   0  0  0  0  0  0  0  0  0  0  0  0
  1  2  1  0  0  0  0
  2  3  2  0  0  0  0
  2  4  1  0  0  0  0
  5  4  1  6  0  0  0
  5  6  1  0  0  0  0
  6  7  1  0  0  0  0
  7  8  1  0  0  0  0
  7  9  1  0  0  0  0
  7 10  1  0  0  0  0
 10 11  2  0  0  0  0
 11 12  2  0  0  0  0
 12 13  1  0  0  0  0
 13 14  1  0  0  0  0
 13 15  2  0  0  0  0
 15 16  1  0  0  0  0
 16 17  2  0  0  0  0
 17 18  1  0  0  0  0
 18 19  2  0  0  0  0
 19 20  1  0  0  0  0
 20 21  2  0  0  0  0
 21 22  1  0  0  0  0
 21 23  1  0  0  0  0
 23 24  2  0  0  0  0
 24 25  1  0  0  0  0
 25 26  1  0  0  0  0
 26 27  2  0  0  0  0
 26 28  1  0  0  0  0
 28 29  1  0  0  0  0
 29 30  2  0  0  0  0
 31 30  1  6  0  0  0
 31 32  1  0  0  0  0
 32 33  1  0  0  0  0
 31 33  1  0  0  0  0
 33 34  1  6  0  0  0
 33 35  1  0  0  0  0
 35 36  1  0  0  0  0
 36 37  1  6  0  0  0
 36 38  1  0  0  0  0
 38 39  1  0  0  0  0
 31 39  1  0  0  0  0
 39 40  1  0  0  0  0
 39 41  1  0  0  0  0
 28 42  2  0  0  0  0
 24 42  1  0  0  0  0
 10 43  1  0  0  0  0
 43 44  1  6  0  0  0
 43 45  1  1  0  0  0
 43 46  1  0  0  0  0
  5 46  1  0  0  0  0
M  END
> <DRUGBANK_ID>
DB03001

> <DRUG_GROUPS>
experimental

> <GENERIC_NAME>
Peridinin

> <CHEMICAL_FORMULA>
C39H50O7

> <MOLECULAR_WEIGHT>
630.8101

> <EXACT_MASS>
630.355653954

> <IUPAC_NAME>
(1R,3S)-3-hydroxy-4-[(3E,5E,7E,9E)-10-{[(2Z)-4-[(E)-2-[(1R,4R,6S)-4-hydroxy-2,2,6-trimethyl-7-oxabicyclo[4.1.0]heptan-1-yl]ethenyl]-5-oxo-2,5-dihydrofuran-2-ylidene]methyl}-3-methylundeca-1,3,5,7,9-pentaen-1-ylidene]-3,5,5-trimethylcyclohexyl acetate

> <IUPAC_TRADITIONAL_NAME>
peridinin

> <INCHI_IDENTIFIER>
InChI=1S/C39H50O7/c1-26(16-17-33-35(4,5)24-32(44-28(3)40)25-37(33,8)43)14-12-10-11-13-15-27(2)20-31-21-29(34(42)45-31)18-19-39-36(6,7)22-30(41)23-38(39,9)46-39/h10-16,18-21,30,32,41,43H,22-25H2,1-9H3/b12-10+,13-11+,19-18+,26-14+,27-15+,31-20-/t17?,30-,32-,37+,38+,39-/m1/s1

> <INCHI_KEY>
InChIKey=UYRDHEJRPVSJFM-YGLVDFNQSA-N

> <SMILES>
O[C@H]1C[C@]2(C)O[C@]2(\C=C\C2=C\C(=C\C(\C)=C\C=C\C=C\C=C(/C)C=C=C3C(C)(C)C[C@@H](OC(C)=O)C[C@@]3(O)C)\OC2=O)C(C)(C)C1

> <JCHEM_ACCEPTOR_COUNT>
5

> <JCHEM_DONOR_COUNT>
2

> <JCHEM_ACIDIC_PKA>
14.04

> <JCHEM_BASIC_PKA>
-2.7

> <JCHEM_PHYSIOLOGICAL_CHARGE>
0

> <ALOGPS_LOGP>
7.05

> <JCHEM_LOGP>
5.25

> <ALOGPS_LOGS>
-5.9

> <JCHEM_POLARIZABILITY>
73.67

> <JCHEM_POLAR_SURFACE_AREA>
105.59

> <JCHEM_REFRACTIVITY>
188.7

> <JCHEM_ROTATABLE_BOND_COUNT>
9

> <ALOGPS_SOLUBILITY>
8.80e-04 g/l __ 

$$$$
