
  Mrv0541 02231217102D          

  9  8  0  0  1  0            999 V2000
    4.6184    2.6664    0.0000 N   0  3  0  0  0  0  0  0  0  0  0  0
    4.6184    1.8414    0.0000 C   0  0  1  0  0  0  0  0  0  0  0  0
    3.9039    1.4289    0.0000 C   0  0  0  0  0  0  0  0  0  0  0  0
    3.1895    1.8414    0.0000 C   0  0  0  0  0  0  0  0  0  0  0  0
    2.4750    1.4289    0.0000 C   0  0  0  0  0  0  0  0  0  0  0  0
    1.7605    1.8414    0.0000 O   0  0  0  0  0  0  0  0  0  0  0  0
    5.3329    1.4289    0.0000 C   0  0  0  0  0  0  0  0  0  0  0  0
    6.0474    1.8414    0.0000 O   0  0  0  0  0  0  0  0  0  0  0  0
    5.3329    0.6039    0.0000 O   0  0  0  0  0  0  0  0  0  0  0  0
  2  1  1  6  0  0  0
  2  3  1  0  0  0  0
  3  4  1  0  0  0  0
  4  5  1  0  0  0  0
  5  6  2  0  0  0  0
  2  7  1  0  0  0  0
  7  8  1  0  0  0  0
  7  9  2  0  0  0  0
M  END
> <DRUGBANK_ID>
DB03774

> <DRUG_GROUPS>
experimental

> <GENERIC_NAME>
Glutamyl Group

> <CHEMICAL_FORMULA>
C5H10NO3

> <MOLECULAR_WEIGHT>
132.1378

> <EXACT_MASS>
132.066068191

> <IUPAC_NAME>
(1S)-1-carboxy-4-oxobutan-1-aminium

> <IUPAC_TRADITIONAL_NAME>
glutamyl group

> <INCHI_IDENTIFIER>
InChI=1S/C5H9NO3/c6-4(5(8)9)2-1-3-7/h3-4H,1-2,6H2,(H,8,9)/p+1/t4-/m0/s1

> <INCHI_KEY>
InChIKey=KABXUUFDPUOJMW-BYPYZUCNSA-O

> <SMILES>
[NH3+][C@@H](CCC=O)C(O)=O

> <JCHEM_ACCEPTOR_COUNT>
3

> <JCHEM_DONOR_COUNT>
2

> <JCHEM_ACIDIC_PKA>
2.12

> <JCHEM_BASIC_PKA>
9.11

> <JCHEM_PHYSIOLOGICAL_CHARGE>
0

> <ALOGPS_LOGP>
-1.1

> <JCHEM_LOGP>
-3.4

> <ALOGPS_LOGS>
-0.85

> <JCHEM_POLARIZABILITY>
12.87

> <JCHEM_POLAR_SURFACE_AREA>
82.01

> <JCHEM_REFRACTIVITY>
41.66

> <JCHEM_ROTATABLE_BOND_COUNT>
4

> <ALOGPS_SOLUBILITY>
2.37e+01 g/l __ 

$$$$
