
  Mrv0541 02231217072D          

 33 34  0  0  1  0            999 V2000
   -1.1929   -9.5734    0.0000 C   0  0  0  0  0  0  0  0  0  0  0  0
   -0.7804   -8.8589    0.0000 C   0  0  1  0  0  0  0  0  0  0  0  0
   -0.3679   -8.1445    0.0000 O   0  0  0  0  0  0  0  0  0  0  0  0
   -1.4949   -8.4464    0.0000 C   0  0  0  0  0  0  0  0  0  0  0  0
   -2.2094   -8.8589    0.0000 O   0  0  0  0  0  0  0  0  0  0  0  0
   -0.0659   -9.2714    0.0000 C   0  0  1  0  0  0  0  0  0  0  0  0
   -0.0659  -10.0964    0.0000 O   0  0  0  0  0  0  0  0  0  0  0  0
    0.6485   -8.8589    0.0000 C   0  0  0  0  0  0  0  0  0  0  0  0
    1.3630   -9.2714    0.0000 O   0  0  0  0  0  0  0  0  0  0  0  0
    2.0775   -8.8589    0.0000 P   0  0  2  0  0  0  0  0  0  0  0  0
    2.4900   -9.5734    0.0000 O   0  0  0  0  0  0  0  0  0  0  0  0
    1.6650   -8.1445    0.0000 O   0  0  0  0  0  0  0  0  0  0  0  0
    2.7919   -8.4464    0.0000 O   0  0  0  0  0  0  0  0  0  0  0  0
    3.5064   -8.8589    0.0000 P   0  0  1  0  0  0  0  0  0  0  0  0
    3.0939   -9.5734    0.0000 O   0  0  0  0  0  0  0  0  0  0  0  0
    3.9189   -8.1445    0.0000 O   0  0  0  0  0  0  0  0  0  0  0  0
    4.2209   -9.2714    0.0000 O   0  0  0  0  0  0  0  0  0  0  0  0
    4.9354   -8.8589    0.0000 C   0  0  0  0  0  0  0  0  0  0  0  0
    5.6498   -9.2714    0.0000 C   0  0  2  0  0  0  0  0  0  0  0  0
    6.4035   -8.9359    0.0000 O   0  0  0  0  0  0  0  0  0  0  0  0
    6.9555   -9.5490    0.0000 C   0  0  2  0  0  0  0  0  0  0  0  0
    6.5430  -10.2634    0.0000 C   0  0  2  0  0  0  0  0  0  0  0  0
    6.8786  -11.0171    0.0000 O   0  0  0  0  0  0  0  0  0  0  0  0
    5.7361  -10.0919    0.0000 C   0  0  1  0  0  0  0  0  0  0  0  0
    5.1230  -10.6440    0.0000 O   0  0  0  0  0  0  0  0  0  0  0  0
    7.7760   -9.4627    0.0000 N   0  0  0  0  0  0  0  0  0  0  0  0
    8.1116   -8.7091    0.0000 C   0  0  0  0  0  0  0  0  0  0  0  0
    8.9321   -8.6228    0.0000 C   0  0  0  0  0  0  0  0  0  0  0  0
    9.4170   -9.2903    0.0000 C   0  0  0  0  0  0  0  0  0  0  0  0
   10.2375   -9.2040    0.0000 N   0  0  0  0  0  0  0  0  0  0  0  0
    9.0814  -10.0439    0.0000 N   0  0  0  0  0  0  0  0  0  0  0  0
    8.2609  -10.1302    0.0000 C   0  0  0  0  0  0  0  0  0  0  0  0
    7.9254  -10.8839    0.0000 O   0  0  0  0  0  0  0  0  0  0  0  0
  2  1  1  6  0  0  0
  2  3  1  6  0  0  0
  2  4  1  0  0  0  0
  4  5  1  0  0  0  0
  2  6  1  0  0  0  0
  6  7  1  6  0  0  0
  6  8  1  0  0  0  0
  8  9  1  0  0  0  0
 10  9  1  6  0  0  0
 10 11  1  1  0  0  0
 10 12  2  0  0  0  0
 10 13  1  0  0  0  0
 14 13  1  1  0  0  0
 14 15  1  6  0  0  0
 14 16  2  0  0  0  0
 14 17  1  0  0  0  0
 17 18  1  0  0  0  0
 19 18  1  6  0  0  0
 19 20  1  0  0  0  0
 20 21  1  0  0  0  0
 21 22  1  0  0  0  0
 22 23  1  6  0  0  0
 22 24  1  0  0  0  0
 19 24  1  0  0  0  0
 24 25  1  1  0  0  0
 21 26  1  1  0  0  0
 26 27  1  0  0  0  0
 27 28  2  0  0  0  0
 28 29  1  0  0  0  0
 29 30  1  0  0  0  0
 29 31  2  0  0  0  0
 31 32  1  0  0  0  0
 26 32  1  0  0  0  0
 32 33  2  0  0  0  0
M  END
> <DRUGBANK_ID>
DB03687

> <DRUG_GROUPS>
experimental

> <GENERIC_NAME>
4-Diphosphocytidyl-2-C-Methyl-D-Erythritol

> <CHEMICAL_FORMULA>
C14H25N3O14P2

> <MOLECULAR_WEIGHT>
521.3075

> <EXACT_MASS>
521.081175547

> <IUPAC_NAME>
[({[(2S,3R,4R,5R)-5-(4-amino-2-oxo-1,2-dihydropyrimidin-1-yl)-3,4-dihydroxyoxolan-2-yl]methoxy}(hydroxy)phosphoryl)oxy][(2S,3R)-2,3,4-trihydroxy-3-methylbutoxy]phosphinic acid

> <IUPAC_TRADITIONAL_NAME>
{[(2S,3R,4R,5R)-5-(4-amino-2-oxopyrimidin-1-yl)-3,4-dihydroxyoxolan-2-yl]methoxy(hydroxy)phosphoryl}oxy(2S,3R)-2,3,4-trihydroxy-3-methylbutoxyphosphinic acid

> <INCHI_IDENTIFIER>
InChI=1S/C14H25N3O14P2/c1-14(23,6-18)8(19)5-29-33(26,27)31-32(24,25)28-4-7-10(20)11(21)12(30-7)17-3-2-9(15)16-13(17)22/h2-3,7-8,10-12,18-21,23H,4-6H2,1H3,(H,24,25)(H,26,27)(H2,15,16,22)/t7-,8-,10-,11+,12+,14+/m0/s1

> <INCHI_KEY>
InChIKey=YFAUKWZNPVBCFF-GSNOWDBKSA-N

> <SMILES>
C[C@@](O)(CO)[C@@H](O)CO[P@](O)(=O)O[P@@](O)(=O)OC[C@@H]1O[C@H]([C@H](O)[C@H]1O)N1C=CC(N)=NC1=O

> <JCHEM_ACCEPTOR_COUNT>
13

> <JCHEM_DONOR_COUNT>
8

> <JCHEM_ACIDIC_PKA>
1.86

> <JCHEM_BASIC_PKA>
-0.58

> <JCHEM_PHYSIOLOGICAL_CHARGE>
-2

> <ALOGPS_LOGP>
-1.3

> <JCHEM_LOGP>
-4.9

> <ALOGPS_LOGS>
-1.6

> <JCHEM_POLARIZABILITY>
44.34

> <JCHEM_POLAR_SURFACE_AREA>
271.36

> <JCHEM_REFRACTIVITY>
103.63

> <JCHEM_ROTATABLE_BOND_COUNT>
11

> <ALOGPS_SOLUBILITY>
1.29e+01 g/l __ 

$$$$
