
  Mrv0541 02231217192D          

  9  9  0  0  0  0            999 V2000
    2.0198    0.8843    0.0000 C   0  0  0  0  0  0  0  0  0  0  0  0
    1.2352    0.6294    0.0000 N   0  0  0  0  0  0  0  0  0  0  0  0
    0.9803   -0.1553    0.0000 C   0  0  0  0  0  0  0  0  0  0  0  0
    1.4652   -0.8227    0.0000 O   0  0  0  0  0  0  0  0  0  0  0  0
    0.1553   -0.1553    0.0000 C   0  0  0  0  0  0  0  0  0  0  0  0
   -0.0997    0.6294    0.0000 C   0  0  0  0  0  0  0  0  0  0  0  0
    0.5678    1.1143    0.0000 C   0  0  0  0  0  0  0  0  0  0  0  0
    0.1628    1.8330    0.0000 C   0  0  0  0  0  0  0  0  0  0  0  0
    0.9728    1.8330    0.0000 C   0  0  0  0  0  0  0  0  0  0  0  0
  1  2  1  0  0  0  0
  2  3  1  0  0  0  0
  3  4  2  0  0  0  0
  3  5  1  0  0  0  0
  5  6  1  0  0  0  0
  6  7  1  0  0  0  0
  2  7  1  0  0  0  0
  7  8  1  0  0  0  0
  7  9  1  0  0  0  0
M  END
> <DRUGBANK_ID>
DB03968

> <DRUG_GROUPS>
experimental

> <GENERIC_NAME>
1-Methyl-2-Oxy-5,5-Dimethyl Pyrrolidine

> <CHEMICAL_FORMULA>
C7H13NO

> <MOLECULAR_WEIGHT>
127.1842

> <EXACT_MASS>
127.099714043

> <IUPAC_NAME>
1,5,5-trimethylpyrrolidin-2-one

> <IUPAC_TRADITIONAL_NAME>
1,5,5-trimethylpyrrolidin-2-one

> <INCHI_IDENTIFIER>
InChI=1S/C7H13NO/c1-7(2)5-4-6(9)8(7)3/h4-5H2,1-3H3

> <INCHI_KEY>
InChIKey=YARDEGUIPATLSG-UHFFFAOYSA-N

> <SMILES>
CN1C(=O)CCC1(C)C

> <JCHEM_ACCEPTOR_COUNT>
1

> <JCHEM_DONOR_COUNT>
0

> <JCHEM_BASIC_PKA>
-0.66

> <JCHEM_PHYSIOLOGICAL_CHARGE>
0

> <ALOGPS_LOGP>
0.51

> <JCHEM_LOGP>
0.34

> <ALOGPS_LOGS>
0.4

> <JCHEM_POLARIZABILITY>
14.35

> <JCHEM_POLAR_SURFACE_AREA>
20.31

> <JCHEM_REFRACTIVITY>
36.21

> <JCHEM_ROTATABLE_BOND_COUNT>
0

> <ALOGPS_SOLUBILITY>
3.17e+02 g/l __ 

$$$$
