
  Mrv0541 02231217092D          

 14 15  0  0  1  0            999 V2000
   -1.4534   -0.6979    0.0000 C   0  0  0  0  0  0  0  0  0  0  0  0
   -0.6284   -0.6979    0.0000 C   0  0  0  0  0  0  0  0  0  0  0  0
   -0.1435   -1.3654    0.0000 N   0  0  0  0  0  0  0  0  0  0  0  0
    0.6411   -1.1104    0.0000 C   0  0  1  0  0  0  0  0  0  0  0  0
    0.6411   -0.2854    0.0000 C   0  0  2  0  0  0  0  0  0  0  0  0
    1.3556    0.1271    0.0000 O   0  0  0  0  0  0  0  0  0  0  0  0
    2.0701   -0.2854    0.0000 C   0  0  1  0  0  0  0  0  0  0  0  0
    2.7845    0.1271    0.0000 C   0  0  0  0  0  0  0  0  0  0  0  0
    2.7845    0.9521    0.0000 O   0  0  0  0  0  0  0  0  0  0  0  0
    2.0701   -1.1104    0.0000 C   0  0  2  0  0  0  0  0  0  0  0  0
    2.7845   -1.5229    0.0000 O   0  0  0  0  0  0  0  0  0  0  0  0
    1.3556   -1.5229    0.0000 C   0  0  1  0  0  0  0  0  0  0  0  0
    1.3556   -2.3479    0.0000 O   0  0  0  0  0  0  0  0  0  0  0  0
   -0.1435   -0.0305    0.0000 S   0  0  0  0  0  0  0  0  0  0  0  0
  1  2  1  0  0  0  0
  2  3  2  0  0  0  0
  4  3  1  1  0  0  0
  4  5  1  0  0  0  0
  5  6  1  1  0  0  0
  6  7  1  0  0  0  0
  7  8  1  1  0  0  0
  8  9  1  0  0  0  0
  7 10  1  0  0  0  0
 10 11  1  6  0  0  0
 10 12  1  0  0  0  0
  4 12  1  0  0  0  0
 12 13  1  1  0  0  0
  5 14  1  0  0  0  0
  2 14  1  0  0  0  0
M  END
> <DRUGBANK_ID>
DB03747

> <DRUG_GROUPS>
experimental

> <GENERIC_NAME>
3ar,5r,6s,7r,7ar-5-Hydroxymethyl-2-Methyl-5,6,7,7a-Tetrahydro-3ah-Pyrano[3,2-D]Thiazole-6,7-Diol

> <CHEMICAL_FORMULA>
C8H13NO4S

> <MOLECULAR_WEIGHT>
219.258

> <EXACT_MASS>
219.056528599

> <IUPAC_NAME>
(3aR,5S,6R,7S,7aR)-5-(hydroxymethyl)-2-methyl-3aH,5H,6H,7H,7aH-pyrano[3,2-d][1,3]thiazole-6,7-diol

> <IUPAC_TRADITIONAL_NAME>
(3aR,5S,6R,7S,7aR)-5-(hydroxymethyl)-2-methyl-3aH,5H,6H,7H,7aH-pyrano[3,2-d][1,3]thiazole-6,7-diol

> <INCHI_IDENTIFIER>
InChI=1S/C8H13NO4S/c1-3-9-5-7(12)6(11)4(2-10)13-8(5)14-3/h4-8,10-12H,2H2,1H3/t4-,5+,6-,7-,8+/m0/s1

> <INCHI_KEY>
InChIKey=DRHXTSWSUAJOJZ-GWVFRZDISA-N

> <SMILES>
CC1=N[C@H]2[C@H](O[C@@H](CO)[C@H](O)[C@H]2O)S1

> <JCHEM_ACCEPTOR_COUNT>
5

> <JCHEM_DONOR_COUNT>
3

> <JCHEM_ACIDIC_PKA>
12.81

> <JCHEM_BASIC_PKA>
2.29

> <JCHEM_PHYSIOLOGICAL_CHARGE>
0

> <ALOGPS_LOGP>
-1

> <JCHEM_LOGP>
-1.4

> <ALOGPS_LOGS>
-1.1

> <JCHEM_POLARIZABILITY>
21.24

> <JCHEM_POLAR_SURFACE_AREA>
82.28

> <JCHEM_REFRACTIVITY>
50.3

> <JCHEM_ROTATABLE_BOND_COUNT>
1

> <ALOGPS_SOLUBILITY>
1.86e+01 g/l __ 

$$$$
