
  Mrv0541 02231217132D          

 13 12  0  0  1  0            999 V2000
    3.7125    0.7145    0.0000 N   0  0  0  0  0  0  0  0  0  0  0  0
    4.1250    0.0000    0.0000 C   0  0  1  0  0  0  0  0  0  0  0  0
    3.7125   -0.7145    0.0000 C   0  0  0  0  0  0  0  0  0  0  0  0
    2.8875   -0.7145    0.0000 C   0  0  0  0  0  0  0  0  0  0  0  0
    2.4750   -1.4289    0.0000 C   0  0  0  0  0  0  0  0  0  0  0  0
    1.6500   -1.4289    0.0000 O   0  0  0  0  0  0  0  0  0  0  0  0
    2.8875   -2.1434    0.0000 O   0  0  0  0  0  0  0  0  0  0  0  0
    2.4750    0.0000    0.0000 C   0  0  0  0  0  0  0  0  0  0  0  0
    1.6500    0.0000    0.0000 O   0  0  0  0  0  0  0  0  0  0  0  0
    2.8875    0.7145    0.0000 O   0  0  0  0  0  0  0  0  0  0  0  0
    4.9500    0.0000    0.0000 C   0  0  0  0  0  0  0  0  0  0  0  0
    5.3625    0.7145    0.0000 O   0  0  0  0  0  0  0  0  0  0  0  0
    5.3625   -0.7145    0.0000 O   0  0  0  0  0  0  0  0  0  0  0  0
  2  1  1  6  0  0  0
  2  3  1  0  0  0  0
  3  4  1  0  0  0  0
  4  5  1  0  0  0  0
  5  6  1  0  0  0  0
  5  7  2  0  0  0  0
  4  8  1  0  0  0  0
  8  9  1  0  0  0  0
  8 10  2  0  0  0  0
  2 11  1  0  0  0  0
 11 12  1  0  0  0  0
 11 13  2  0  0  0  0
M  END
> <DRUGBANK_ID>
DB03847

> <DRUG_GROUPS>
experimental

> <GENERIC_NAME>
Gamma-Carboxy-Glutamic Acid

> <CHEMICAL_FORMULA>
C6H9NO6

> <MOLECULAR_WEIGHT>
191.1388

> <EXACT_MASS>
191.042987025

> <IUPAC_NAME>
(1S)-1-aminopropane-1,3,3-tricarboxylic acid

> <IUPAC_TRADITIONAL_NAME>
(1S)-1-aminopropane-1,3,3-tricarboxylic acid

> <INCHI_IDENTIFIER>
InChI=1S/C6H9NO6/c7-3(6(12)13)1-2(4(8)9)5(10)11/h2-3H,1,7H2,(H,8,9)(H,10,11)(H,12,13)/t3-/m0/s1

> <INCHI_KEY>
InChIKey=UHBYWPGGCSDKFX-VKHMYHEASA-N

> <SMILES>
N[C@@H](CC(C(O)=O)C(O)=O)C(O)=O

> <JCHEM_ACCEPTOR_COUNT>
7

> <JCHEM_DONOR_COUNT>
4

> <JCHEM_ACIDIC_PKA>
1.48

> <JCHEM_BASIC_PKA>
9.54

> <JCHEM_PHYSIOLOGICAL_CHARGE>
-2

> <ALOGPS_LOGP>
-3

> <JCHEM_LOGP>
-3.6

> <ALOGPS_LOGS>
-0.93

> <JCHEM_POLARIZABILITY>
16.25

> <JCHEM_POLAR_SURFACE_AREA>
137.92

> <JCHEM_REFRACTIVITY>
37.58

> <JCHEM_ROTATABLE_BOND_COUNT>
5

> <ALOGPS_SOLUBILITY>
2.25e+01 g/l __ 

$$$$
