
  Mrv0541 02231216592D          

 24 24  0  0  1  0            999 V2000
   -3.5724   -0.4125    0.0000 C   0  0  0  0  0  0  0  0  0  0  0  0
   -2.8579    0.0000    0.0000 C   0  0  0  0  0  0  0  0  0  0  0  0
   -2.1434   -0.4125    0.0000 C   0  0  0  0  0  0  0  0  0  0  0  0
   -1.4289    0.0000    0.0000 N   0  0  0  0  0  0  0  0  0  0  0  0
   -1.4289    0.8250    0.0000 C   0  0  0  0  0  0  0  0  0  0  0  0
   -0.7145   -0.4125    0.0000 C   0  0  0  0  0  0  0  0  0  0  0  0
   -0.7145   -1.2375    0.0000 O   0  0  0  0  0  0  0  0  0  0  0  0
    0.0000    0.0000    0.0000 C   0  0  2  0  0  0  0  0  0  0  0  0
    0.0000    0.8250    0.0000 O   0  0  0  0  0  0  0  0  0  0  0  0
    0.7145    1.2375    0.0000 C   0  0  0  0  0  0  0  0  0  0  0  0
    1.4289    0.8250    0.0000 C   0  0  0  0  0  0  0  0  0  0  0  0
    1.4289    0.0000    0.0000 C   0  0  2  0  0  0  0  0  0  0  0  0
    2.1434   -0.4125    0.0000 N   0  0  0  0  0  0  0  0  0  0  0  0
    2.8579    0.0000    0.0000 C   0  0  0  0  0  0  0  0  0  0  0  0
    2.8579    0.8250    0.0000 N   0  0  0  0  0  0  0  0  0  0  0  0
    3.5724   -0.4125    0.0000 N   0  0  0  0  0  0  0  0  0  0  0  0
    0.7145   -0.4125    0.0000 C   0  0  1  0  0  0  0  0  0  0  0  0
    0.7145   -1.2375    0.0000 N   0  0  0  0  0  0  0  0  0  0  0  0
    1.4289   -1.6500    0.0000 C   0  0  0  0  0  0  0  0  0  0  0  0
    2.1434   -1.2375    0.0000 C   0  0  0  0  0  0  0  0  0  0  0  0
    1.4289   -2.4750    0.0000 O   0  0  0  0  0  0  0  0  0  0  0  0
    0.7145    2.0625    0.0000 C   0  0  0  0  0  0  0  0  0  0  0  0
    0.0000    2.4750    0.0000 O   0  0  0  0  0  0  0  0  0  0  0  0
    1.4289    2.4750    0.0000 O   0  0  0  0  0  0  0  0  0  0  0  0
  1  2  1  0  0  0  0
  2  3  1  0  0  0  0
  3  4  1  0  0  0  0
  4  5  1  0  0  0  0
  4  6  1  0  0  0  0
  6  7  2  0  0  0  0
  8  6  1  6  0  0  0
  8  9  1  0  0  0  0
  9 10  1  0  0  0  0
 10 11  2  0  0  0  0
 11 12  1  0  0  0  0
 12 13  1  6  0  0  0
 13 14  1  0  0  0  0
 14 15  1  0  0  0  0
 14 16  2  0  0  0  0
 12 17  1  0  0  0  0
  8 17  1  0  0  0  0
 17 18  1  1  0  0  0
 18 19  1  0  0  0  0
 19 20  1  0  0  0  0
 19 21  2  0  0  0  0
 10 22  1  0  0  0  0
 22 23  1  0  0  0  0
 22 24  2  0  0  0  0
M  END
> <DRUGBANK_ID>
DB03503

> <DRUG_GROUPS>
experimental

> <GENERIC_NAME>
4-Acetyl-4-Guanidino-6-Methyl(Propyl)Carboxamide-4,5-Dihydro-2h-Pyran-2-Carboxylic Acid

> <CHEMICAL_FORMULA>
C14H23N5O5

> <MOLECULAR_WEIGHT>
341.3629

> <EXACT_MASS>
341.169918871

> <IUPAC_NAME>
(2R,3R,4S)-4-carbamimidamido-3-acetamido-2-[methyl(propyl)carbamoyl]-3,4-dihydro-2H-pyran-6-carboxylic acid

> <IUPAC_TRADITIONAL_NAME>
(4S,5R,6R)-4-carbamimidamido-5-acetamido-6-[methyl(propyl)carbamoyl]-5,6-dihydro-4H-pyran-2-carboxylic acid

> <INCHI_IDENTIFIER>
InChI=1S/C14H23N5O5/c1-4-5-19(3)12(21)11-10(17-7(2)20)8(18-14(15)16)6-9(24-11)13(22)23/h6,8,10-11H,4-5H2,1-3H3,(H,17,20)(H,22,23)(H4,15,16,18)/t8-,10+,11+/m0/s1

> <INCHI_KEY>
InChIKey=QPJWMZVTNXFTKV-JMJZKYOTSA-N

> <SMILES>
CCCN(C)C(=O)[C@@H]1OC(=C[C@H](NC(N)=N)[C@H]1NC(C)=O)C(O)=O

> <JCHEM_ACCEPTOR_COUNT>
8

> <JCHEM_DONOR_COUNT>
5

> <JCHEM_ACIDIC_PKA>
3.8

> <JCHEM_BASIC_PKA>
11.93

> <JCHEM_PHYSIOLOGICAL_CHARGE>
0

> <ALOGPS_LOGP>
-0.68

> <JCHEM_LOGP>
-3.7

> <ALOGPS_LOGS>
-2.8

> <JCHEM_POLARIZABILITY>
34.09

> <JCHEM_POLAR_SURFACE_AREA>
157.84

> <JCHEM_REFRACTIVITY>
95.31

> <JCHEM_ROTATABLE_BOND_COUNT>
6

> <ALOGPS_SOLUBILITY>
5.03e-01 g/l __ 

$$$$
