
  Mrv0541 02231217112D          

  7  7  0  0  0  0            999 V2000
    2.0198    0.8843    0.0000 C   0  0  0  0  0  0  0  0  0  0  0  0
    1.2352    0.6294    0.0000 N   0  0  0  0  0  0  0  0  0  0  0  0
    0.9803   -0.1553    0.0000 C   0  0  0  0  0  0  0  0  0  0  0  0
    0.1553   -0.1553    0.0000 C   0  0  0  0  0  0  0  0  0  0  0  0
   -0.0997    0.6294    0.0000 N   0  3  0  0  0  0  0  0  0  0  0  0
    0.5678    1.1143    0.0000 C   0  0  0  0  0  0  0  0  0  0  0  0
    0.5678    1.9393    0.0000 C   0  0  0  0  0  0  0  0  0  0  0  0
  1  2  1  0  0  0  0
  2  3  1  0  0  0  0
  3  4  2  0  0  0  0
  4  5  1  0  0  0  0
  5  6  2  0  0  0  0
  2  6  1  0  0  0  0
  6  7  1  0  0  0  0
M  END
> <DRUGBANK_ID>
DB03789

> <DRUG_GROUPS>
experimental

> <GENERIC_NAME>
2,3-Dimethylimidazolium Ion

> <CHEMICAL_FORMULA>
C5H9N2

> <MOLECULAR_WEIGHT>
97.1384

> <EXACT_MASS>
97.076573298

> <IUPAC_NAME>
1,2-dimethyl-1H-imidazol-3-ium

> <IUPAC_TRADITIONAL_NAME>
2,3-dimethylimidazol-1-ium

> <INCHI_IDENTIFIER>
InChI=1S/C5H8N2/c1-5-6-3-4-7(5)2/h3-4H,1-2H3/p+1

> <INCHI_KEY>
InChIKey=GIWQSPITLQVMSG-UHFFFAOYSA-O

> <SMILES>
CN1C=C[NH+]=C1C

> <JCHEM_ACCEPTOR_COUNT>
0

> <JCHEM_DONOR_COUNT>
1

> <JCHEM_BASIC_PKA>
7.38

> <JCHEM_PHYSIOLOGICAL_CHARGE>
1

> <ALOGPS_LOGP>
-1.4

> <JCHEM_LOGP>
0.2

> <ALOGPS_LOGS>
-1.8

> <JCHEM_POLARIZABILITY>
11.05

> <JCHEM_POLAR_SURFACE_AREA>
19.07

> <JCHEM_REFRACTIVITY>
39.16

> <JCHEM_ROTATABLE_BOND_COUNT>
0

> <ALOGPS_SOLUBILITY>
1.99e+00 g/l __ 

$$$$
