
  Mrv0541 02231216532D          

 16 17  0  0  1  0            999 V2000
    4.8494    1.3537    0.0000 O   0  0  0  0  0  0  0  0  0  0  0  0
    5.5638    0.9412    0.0000 C   0  0  0  0  0  0  0  0  0  0  0  0
    5.5638    0.1162    0.0000 O   0  0  0  0  0  0  0  0  0  0  0  0
    6.2783    1.3537    0.0000 C   0  0  0  0  0  0  0  0  0  0  0  0
    6.9928    0.9412    0.0000 C   0  0  0  0  0  0  0  0  0  0  0  0
    7.7072    1.3537    0.0000 C   0  0  0  0  0  0  0  0  0  0  0  0
    8.4217    0.9412    0.0000 C   0  0  0  0  0  0  0  0  0  0  0  0
    9.1362    1.3537    0.0000 C   0  0  2  0  0  0  0  0  0  0  0  0
    9.2224    2.1742    0.0000 S   0  0  0  0  0  0  0  0  0  0  0  0
   10.0294    2.3457    0.0000 C   0  0  0  0  0  0  0  0  0  0  0  0
   10.4419    1.6313    0.0000 C   0  0  1  0  0  0  0  0  0  0  0  0
   11.1956    1.2957    0.0000 N   0  0  0  0  0  0  0  0  0  0  0  0
   11.1093    0.4752    0.0000 C   0  0  0  0  0  0  0  0  0  0  0  0
   11.7224   -0.0768    0.0000 N   0  0  0  0  0  0  0  0  0  0  0  0
   10.3024    0.3037    0.0000 N   0  0  0  0  0  0  0  0  0  0  0  0
    9.8899    1.0182    0.0000 C   0  0  1  0  0  0  0  0  0  0  0  0
  1  2  1  0  0  0  0
  2  3  2  0  0  0  0
  2  4  1  0  0  0  0
  4  5  1  0  0  0  0
  5  6  1  0  0  0  0
  6  7  1  0  0  0  0
  8  7  1  6  0  0  0
  8  9  1  0  0  0  0
  9 10  1  0  0  0  0
 10 11  1  0  0  0  0
 11 12  1  1  0  0  0
 12 13  1  0  0  0  0
 13 14  2  0  0  0  0
 13 15  1  0  0  0  0
 16 15  1  1  0  0  0
  8 16  1  0  0  0  0
 11 16  1  0  0  0  0
M  END
> <DRUGBANK_ID>
DB03353

> <DRUG_GROUPS>
experimental

> <GENERIC_NAME>
2-Iminobiotin

> <CHEMICAL_FORMULA>
C10H17N3O2S

> <MOLECULAR_WEIGHT>
243.326

> <EXACT_MASS>
243.104147493

> <IUPAC_NAME>
5-[(3aR,4S,6aS)-2-imino-hexahydro-1H-thieno[3,4-d]imidazolidin-4-yl]pentanoic acid

> <IUPAC_TRADITIONAL_NAME>
2-iminobiotin

> <INCHI_IDENTIFIER>
InChI=1S/C10H17N3O2S/c11-10-12-6-5-16-7(9(6)13-10)3-1-2-4-8(14)15/h6-7,9H,1-5H2,(H,14,15)(H3,11,12,13)/t6-,7+,9-/m1/s1

> <INCHI_KEY>
InChIKey=WWVANQJRLPIHNS-BKPPORCPSA-N

> <SMILES>
OC(=O)CCCC[C@@H]1SC[C@H]2NC(=N)N[C@@H]12

> <JCHEM_ACCEPTOR_COUNT>
5

> <JCHEM_DONOR_COUNT>
4

> <JCHEM_ACIDIC_PKA>
4.43

> <JCHEM_BASIC_PKA>
11.41

> <JCHEM_PHYSIOLOGICAL_CHARGE>
0

> <ALOGPS_LOGP>
-0.43

> <JCHEM_LOGP>
-1.1

> <ALOGPS_LOGS>
-2.3

> <JCHEM_POLARIZABILITY>
25.5

> <JCHEM_POLAR_SURFACE_AREA>
85.21

> <JCHEM_REFRACTIVITY>
72.52

> <JCHEM_ROTATABLE_BOND_COUNT>
5

> <ALOGPS_SOLUBILITY>
1.17e+00 g/l __ 

$$$$
