
  Mrv0541 02231216452D          

  4  3  0  0  0  0            999 V2000
    2.0625   -0.7145    0.0000 C   0  0  0  0  0  0  0  0  0  0  0  0
    1.2375   -0.7145    0.0000 C   0  0  0  0  0  0  0  0  0  0  0  0
    0.8250    0.0000    0.0000 C   0  0  0  0  0  0  0  0  0  0  0  0
    0.0000    0.0000    0.0000 O   0  0  0  0  0  0  0  0  0  0  0  0
  1  2  1  0  0  0  0
  2  3  1  0  0  0  0
  3  4  1  0  0  0  0
M  END
> <DRUGBANK_ID>
DB03175

> <DRUG_GROUPS>
experimental

> <GENERIC_NAME>
1-Proponol

> <CHEMICAL_FORMULA>
C3H8O

> <MOLECULAR_WEIGHT>
60.095

> <EXACT_MASS>
60.057514878

> <IUPAC_NAME>
propan-1-ol

> <IUPAC_TRADITIONAL_NAME>
1-proponol

> <INCHI_IDENTIFIER>
InChI=1S/C3H8O/c1-2-3-4/h4H,2-3H2,1H3

> <INCHI_KEY>
InChIKey=BDERNNFJNOPAEC-UHFFFAOYSA-N

> <SMILES>
CCCO

> <JCHEM_ACCEPTOR_COUNT>
1

> <JCHEM_DONOR_COUNT>
1

> <JCHEM_ACIDIC_PKA>
16.85

> <JCHEM_BASIC_PKA>
-2

> <JCHEM_PHYSIOLOGICAL_CHARGE>
0

> <ALOGPS_LOGP>
0.21

> <JCHEM_LOGP>
0.36

> <ALOGPS_LOGS>
0.81

> <JCHEM_POLARIZABILITY>
7.23

> <JCHEM_POLAR_SURFACE_AREA>
20.23

> <JCHEM_REFRACTIVITY>
17.53

> <JCHEM_ROTATABLE_BOND_COUNT>
1

> <ALOGPS_SOLUBILITY>
3.91e+02 g/l __ 

$$$$
