
  Mrv0541 02231217022D          

 16 15  0  0  1  0            999 V2000
    4.2355    3.2704    0.0000 N   0  0  0  0  0  0  0  0  0  0  0  0
    4.9500    2.8579    0.0000 C   0  0  0  0  0  0  0  0  0  0  0  0
    5.6645    3.2704    0.0000 C   0  0  0  0  0  0  0  0  0  0  0  0
    6.3789    2.8579    0.0000 C   0  0  0  0  0  0  0  0  0  0  0  0
    7.0934    3.2704    0.0000 C   0  0  1  0  0  0  0  0  0  0  0  0
    7.8079    2.8579    0.0000 N   0  0  0  0  0  0  0  0  0  0  0  0
    8.5224    3.2704    0.0000 C   0  0  0  0  0  0  0  0  0  0  0  0
    8.5224    4.0954    0.0000 O   0  0  0  0  0  0  0  0  0  0  0  0
    9.2368    2.8579    0.0000 C   0  0  0  0  0  0  0  0  0  0  0  0
    9.9513    3.2704    0.0000 C   0  0  0  0  0  0  0  0  0  0  0  0
   10.6658    2.8579    0.0000 C   0  0  0  0  0  0  0  0  0  0  0  0
   11.3802    3.2704    0.0000 O   0  0  0  0  0  0  0  0  0  0  0  0
   10.6658    2.0329    0.0000 O   0  0  0  0  0  0  0  0  0  0  0  0
    7.0934    4.0954    0.0000 C   0  0  0  0  0  0  0  0  0  0  0  0
    7.8079    4.5079    0.0000 O   0  0  0  0  0  0  0  0  0  0  0  0
    6.3789    4.5079    0.0000 O   0  0  0  0  0  0  0  0  0  0  0  0
  1  2  1  0  0  0  0
  2  3  1  0  0  0  0
  3  4  1  0  0  0  0
  4  5  1  0  0  0  0
  5  6  1  6  0  0  0
  6  7  1  0  0  0  0
  7  8  2  0  0  0  0
  7  9  1  0  0  0  0
  9 10  1  0  0  0  0
 10 11  1  0  0  0  0
 11 12  1  0  0  0  0
 11 13  2  0  0  0  0
  5 14  1  0  0  0  0
 14 15  1  0  0  0  0
 14 16  2  0  0  0  0
M  END
> <DRUGBANK_ID>
DB03582

> <DRUG_GROUPS>
experimental

> <GENERIC_NAME>
N~2~-Succinylornithine

> <CHEMICAL_FORMULA>
C9H16N2O5

> <MOLECULAR_WEIGHT>
232.2337

> <EXACT_MASS>
232.105921632

> <IUPAC_NAME>
(2R)-5-amino-2-(3-carboxypropanamido)pentanoic acid

> <IUPAC_TRADITIONAL_NAME>
N~2~-succinylornithine

> <INCHI_IDENTIFIER>
InChI=1S/C9H16N2O5/c10-5-1-2-6(9(15)16)11-7(12)3-4-8(13)14/h6H,1-5,10H2,(H,11,12)(H,13,14)(H,15,16)/t6-/m1/s1

> <INCHI_KEY>
InChIKey=VWXQFHJBQHTHMK-ZCFIWIBFSA-N

> <SMILES>
NCCC[C@@H](NC(=O)CCC(O)=O)C(O)=O

> <JCHEM_ACCEPTOR_COUNT>
6

> <JCHEM_DONOR_COUNT>
4

> <JCHEM_ACIDIC_PKA>
3.32

> <JCHEM_BASIC_PKA>
9.9

> <JCHEM_PHYSIOLOGICAL_CHARGE>
-1

> <ALOGPS_LOGP>
-3.4

> <JCHEM_LOGP>
-4.1

> <ALOGPS_LOGS>
-1.1

> <JCHEM_POLARIZABILITY>
22.77

> <JCHEM_POLAR_SURFACE_AREA>
129.72

> <JCHEM_REFRACTIVITY>
53.55

> <JCHEM_ROTATABLE_BOND_COUNT>
8

> <ALOGPS_SOLUBILITY>
1.93e+01 g/l __ 

$$$$
