
  Mrv0541 02231217062D          

 23 24  0  0  1  0            999 V2000
    0.1067    4.7652    0.0000 C   0  0  0  0  0  0  0  0  0  0  0  0
   -0.6078    4.3527    0.0000 C   0  0  0  0  0  0  0  0  0  0  0  0
   -0.6078    3.5277    0.0000 C   0  0  0  0  0  0  0  0  0  0  0  0
   -1.3222    3.1152    0.0000 N   0  0  0  0  0  0  0  0  0  0  0  0
   -1.3222    2.2902    0.0000 C   0  0  1  0  0  0  0  0  0  0  0  0
   -0.6548    1.8053    0.0000 C   0  0  0  0  0  0  0  0  0  0  0  0
   -0.9097    1.0206    0.0000 C   0  0  1  0  0  0  0  0  0  0  0  0
   -0.4248    0.3532    0.0000 N   0  0  0  0  0  0  0  0  0  0  0  0
   -0.7604   -0.4005    0.0000 N   0  3  0  0  0  0  0  0  0  0  0  0
   -1.0959   -1.1542    0.0000 N   0  5  0  0  0  0  0  0  0  0  0  0
   -1.7347    1.0206    0.0000 C   0  0  2  0  0  0  0  0  0  0  0  0
   -2.2197    0.3532    0.0000 C   0  0  0  0  0  0  0  0  0  0  0  0
   -1.8841   -0.4005    0.0000 O   0  0  0  0  0  0  0  0  0  0  0  0
   -2.3690   -1.0679    0.0000 P   0  0  0  0  0  0  0  0  0  0  0  0
   -2.8539   -1.7354    0.0000 O   0  0  0  0  0  0  0  0  0  0  0  0
   -1.7016   -1.5528    0.0000 O   0  0  0  0  0  0  0  0  0  0  0  0
   -3.0365   -0.5830    0.0000 O   0  0  0  0  0  0  0  0  0  0  0  0
   -1.9897    1.8053    0.0000 O   0  0  0  0  0  0  0  0  0  0  0  0
   -2.0367    3.5277    0.0000 C   0  0  0  0  0  0  0  0  0  0  0  0
   -2.7512    3.1152    0.0000 O   0  0  0  0  0  0  0  0  0  0  0  0
   -2.0367    4.3527    0.0000 N   0  0  0  0  0  0  0  0  0  0  0  0
   -1.3222    4.7652    0.0000 C   0  0  0  0  0  0  0  0  0  0  0  0
   -1.3222    5.5902    0.0000 O   0  0  0  0  0  0  0  0  0  0  0  0
  1  2  1  0  0  0  0
  2  3  2  0  0  0  0
  3  4  1  0  0  0  0
  5  4  1  1  0  0  0
  5  6  1  0  0  0  0
  6  7  1  0  0  0  0
  7  8  1  1  0  0  0
  8  9  2  0  0  0  0
  9 10  2  0  0  0  0
  7 11  1  0  0  0  0
 11 12  1  6  0  0  0
 12 13  1  0  0  0  0
 13 14  1  0  0  0  0
 14 15  1  0  0  0  0
 14 16  1  0  0  0  0
 14 17  2  0  0  0  0
 11 18  1  0  0  0  0
  5 18  1  0  0  0  0
  4 19  1  0  0  0  0
 19 20  2  0  0  0  0
 19 21  1  0  0  0  0
 21 22  1  0  0  0  0
  2 22  1  0  0  0  0
 22 23  2  0  0  0  0
M  END
> <DRUGBANK_ID>
DB03666

> <DRUG_GROUPS>
experimental

> <GENERIC_NAME>
3'-Azido-3'-Deoxythymidine-5'-Monophosphate

> <CHEMICAL_FORMULA>
C10H14N5O7P

> <MOLECULAR_WEIGHT>
347.2212

> <EXACT_MASS>
347.063084339

> <IUPAC_NAME>
{[(2R,3R,5R)-3-azido-5-(5-methyl-2,4-dioxo-1,2,3,4-tetrahydropyrimidin-1-yl)oxolan-2-yl]methoxy}phosphonic acid

> <IUPAC_TRADITIONAL_NAME>
[(2R,3R,5R)-3-azido-5-(5-methyl-2,4-dioxo-3H-pyrimidin-1-yl)oxolan-2-yl]methoxyphosphonic acid

> <INCHI_IDENTIFIER>
InChI=1S/C10H14N5O7P/c1-5-3-15(10(17)12-9(5)16)8-2-6(13-14-11)7(22-8)4-21-23(18,19)20/h3,6-8H,2,4H2,1H3,(H,12,16,17)(H2,18,19,20)/t6-,7+,8-/m1/s1

> <INCHI_KEY>
InChIKey=OIFWQOKDSPDILA-GJMOJQLCSA-N

> <SMILES>
CC1=CN([C@H]2C[C@@H](N=[N+]=[N-])[C@H](COP(O)(O)=O)O2)C(=O)NC1=O

> <JCHEM_ACCEPTOR_COUNT>
8

> <JCHEM_DONOR_COUNT>
3

> <JCHEM_ACIDIC_PKA>
1.26

> <JCHEM_BASIC_PKA>
-4.2

> <JCHEM_PHYSIOLOGICAL_CHARGE>
-2

> <ALOGPS_LOGP>
-0.04

> <JCHEM_LOGP>
-0.42

> <ALOGPS_LOGS>
-2.1

> <JCHEM_POLARIZABILITY>
29.28

> <JCHEM_POLAR_SURFACE_AREA>
154.83

> <JCHEM_REFRACTIVITY>
72.58

> <JCHEM_ROTATABLE_BOND_COUNT>
5

> <ALOGPS_SOLUBILITY>
2.84e+00 g/l __ 

$$$$
