
  Mrv0541 02231217162D          

 24 26  0  0  1  0            999 V2000
   -3.4255   -1.9958    0.0000 C   0  0  0  0  0  0  0  0  0  0  0  0
   -2.6719   -2.3314    0.0000 C   0  0  2  0  0  0  0  0  0  0  0  0
   -2.5856   -3.1518    0.0000 O   0  0  0  0  0  0  0  0  0  0  0  0
   -2.0044   -1.8464    0.0000 C   0  0  1  0  0  0  0  0  0  0  0  0
   -2.0907   -1.0260    0.0000 N   0  0  0  0  0  0  0  0  0  0  0  0
   -1.2508   -2.1820    0.0000 C   0  0  0  0  0  0  0  0  0  0  0  0
   -0.5363   -1.7695    0.0000 N   0  0  0  0  0  0  0  0  0  0  0  0
    0.0768   -2.3215    0.0000 C   0  0  0  0  0  0  0  0  0  0  0  0
    0.8838   -2.1500    0.0000 C   0  0  0  0  0  0  0  0  0  0  0  0
    1.1387   -1.3654    0.0000 C   0  0  0  0  0  0  0  0  0  0  0  0
    0.6538   -0.6979    0.0000 C   0  0  0  0  0  0  0  0  0  0  0  0
    1.1387   -0.0305    0.0000 N   0  0  0  0  0  0  0  0  0  0  0  0
    1.9233   -0.2854    0.0000 C   0  0  0  0  0  0  0  0  0  0  0  0
    2.6378    0.1271    0.0000 C   0  0  0  0  0  0  0  0  0  0  0  0
    3.3523   -0.2854    0.0000 C   0  0  0  0  0  0  0  0  0  0  0  0
    3.3523   -1.1104    0.0000 C   0  0  0  0  0  0  0  0  0  0  0  0
    2.6378   -1.5229    0.0000 C   0  0  0  0  0  0  0  0  0  0  0  0
    1.9233   -1.1104    0.0000 C   0  0  0  0  0  0  0  0  0  0  0  0
   -0.2587   -3.0752    0.0000 C   0  0  0  0  0  0  0  0  0  0  0  0
    0.1538   -3.7897    0.0000 O   0  0  0  0  0  0  0  0  0  0  0  0
   -1.0792   -2.9890    0.0000 N   0  0  0  0  0  0  0  0  0  0  0  0
   -1.6313   -3.6021    0.0000 C   0  0  0  0  0  0  0  0  0  0  0  0
   -1.3763   -4.3867    0.0000 C   0  0  0  0  0  0  0  0  0  0  0  0
   -1.9284   -4.9998    0.0000 O   0  0  0  0  0  0  0  0  0  0  0  0
  1  2  1  0  0  0  0
  2  3  1  1  0  0  0
  2  4  1  0  0  0  0
  4  5  1  1  0  0  0
  4  6  1  0  0  0  0
  6  7  2  0  0  0  0
  7  8  1  0  0  0  0
  8  9  2  0  0  0  0
  9 10  1  0  0  0  0
 10 11  4  0  0  0  0
 11 12  4  0  0  0  0
 12 13  4  0  0  0  0
 13 14  4  0  0  0  0
 14 15  4  0  0  0  0
 15 16  4  0  0  0  0
 16 17  4  0  0  0  0
 17 18  4  0  0  0  0
 10 18  4  0  0  0  0
 13 18  4  0  0  0  0
  8 19  1  0  0  0  0
 19 20  2  0  0  0  0
 19 21  1  0  0  0  0
  6 21  1  0  0  0  0
 21 22  1  0  0  0  0
 22 23  1  0  0  0  0
 23 24  2  0  0  0  0
M  END
> <DRUGBANK_ID>
DB03914

> <DRUG_GROUPS>
experimental

> <GENERIC_NAME>
[2-(1-Amino-2-Hydroxy-Propyl)-4-(1h-Indol-3-Ylmethylene)-5-Oxo-4,5-Dihydro-Imidazol-1-Yl]-Acetaldehyde

> <CHEMICAL_FORMULA>
C17H17N4O3

> <MOLECULAR_WEIGHT>
325.3419

> <EXACT_MASS>
325.13006543

> <IUPAC_NAME>
2-[(4Z)-2-[(1S,2S)-1-amino-2-hydroxypropyl]-4-(indol-3-ylmethylidene)-5-oxo-4,5-dihydro-1H-imidazol-1-yl]acetaldehyde

> <IUPAC_TRADITIONAL_NAME>
2-[(4Z)-2-[(1S,2S)-1-amino-2-hydroxypropyl]-4-(indol-3-ylmethylidene)-5-oxoimidazol-1-yl]acetaldehyde

> <INCHI_IDENTIFIER>
InChI=1S/C17H17N4O3/c1-10(23)15(18)16-20-14(17(24)21(16)6-7-22)8-11-9-19-13-5-3-2-4-12(11)13/h2-5,7-10,15,23H,6,18H2,1H3/b14-8-/t10-,15+/m0/s1

> <INCHI_KEY>
InChIKey=LSZBNIBVISMGSN-ZWUDRCEUSA-N

> <SMILES>
C[C@H](O)[C@@H](N)C1=N\C(=C/c2cnc3ccccc23)C(=O)N1CC=O

> <JCHEM_ACCEPTOR_COUNT>
6

> <JCHEM_DONOR_COUNT>
2

> <JCHEM_ACIDIC_PKA>
13.52

> <JCHEM_BASIC_PKA>
7.36

> <JCHEM_PHYSIOLOGICAL_CHARGE>
1

> <ALOGPS_LOGP>
0.99

> <JCHEM_LOGP>
-0.59

> <ALOGPS_LOGS>
-3.4

> <JCHEM_POLARIZABILITY>
34.11

> <JCHEM_POLAR_SURFACE_AREA>
108.88

> <JCHEM_REFRACTIVITY>
88.56

> <JCHEM_ROTATABLE_BOND_COUNT>
5

> <ALOGPS_SOLUBILITY>
1.21e-01 g/l __ 

$$$$
