
  Mrv0541 02231216472D          

 21 21  0  0  1  0            999 V2000
   -0.7066   -2.2119    0.0000 C   0  0  0  0  0  0  0  0  0  0  0  0
   -0.7066   -1.3869    0.0000 N   0  3  0  0  0  0  0  0  0  0  0  0
    0.1184   -1.3869    0.0000 C   0  0  0  0  0  0  0  0  0  0  0  0
   -1.5316   -1.3869    0.0000 C   0  0  0  0  0  0  0  0  0  0  0  0
   -0.7066   -0.5619    0.0000 C   0  0  1  0  0  0  0  0  0  0  0  0
   -1.4211   -0.1494    0.0000 C   0  0  0  0  0  0  0  0  0  0  0  0
   -1.4211    0.6756    0.0000 C   0  0  0  0  0  0  0  0  0  0  0  0
   -2.1356    1.0881    0.0000 C   0  0  0  0  0  0  0  0  0  0  0  0
   -2.8893    0.7526    0.0000 N   0  0  0  0  0  0  0  0  0  0  0  0
   -3.4413    1.3657    0.0000 C   0  0  0  0  0  0  0  0  0  0  0  0
   -3.0288    2.0801    0.0000 C   0  0  0  0  0  0  0  0  0  0  0  0
   -3.3644    2.8338    0.0000 C   0  0  0  0  0  0  0  0  0  0  0  0
   -4.1848    2.9201    0.0000 C   0  0  2  0  0  0  0  0  0  0  0  0
   -4.6698    2.2526    0.0000 N   0  0  0  0  0  0  0  0  0  0  0  0
   -4.5204    3.6737    0.0000 C   0  0  0  0  0  0  0  0  0  0  0  0
   -5.3409    3.7600    0.0000 O   0  0  0  0  0  0  0  0  0  0  0  0
   -4.0355    4.3412    0.0000 O   0  0  0  0  0  0  0  0  0  0  0  0
   -2.2218    1.9086    0.0000 N   0  0  0  0  0  0  0  0  0  0  0  0
    0.0078   -0.1494    0.0000 C   0  0  0  0  0  0  0  0  0  0  0  0
    0.0078    0.6756    0.0000 N   0  0  0  0  0  0  0  0  0  0  0  0
    0.7223   -0.5619    0.0000 O   0  0  0  0  0  0  0  0  0  0  0  0
  1  2  1  0  0  0  0
  2  3  1  0  0  0  0
  2  4  1  0  0  0  0
  5  2  1  1  0  0  0
  5  6  1  0  0  0  0
  6  7  1  0  0  0  0
  7  8  1  0  0  0  0
  8  9  4  0  0  0  0
  9 10  4  0  0  0  0
 10 11  4  0  0  0  0
 11 12  1  0  0  0  0
 12 13  1  0  0  0  0
 13 14  1  6  0  0  0
 13 15  1  0  0  0  0
 15 16  1  0  0  0  0
 15 17  2  0  0  0  0
 11 18  4  0  0  0  0
  8 18  4  0  0  0  0
  5 19  1  0  0  0  0
 19 20  1  0  0  0  0
 19 21  2  0  0  0  0
M  END
> <DRUGBANK_ID>
DB03223

> <DRUG_GROUPS>
experimental

> <GENERIC_NAME>
Diphthamide

> <SYNONYMS>
2-(3-Carboxyamido-3-(Trimethylammonio)Propyl)Histidine

> <CHEMICAL_FORMULA>
C13H23N5O3

> <MOLECULAR_WEIGHT>
297.3534

> <EXACT_MASS>
297.180089627

> <IUPAC_NAME>
[(1S)-3-{4-[(2S)-2-amino-2-carboxyethyl]imidazol-2-yl}-1-carbamoylpropyl]trimethylazanium

> <IUPAC_TRADITIONAL_NAME>
diphthamide

> <INCHI_IDENTIFIER>
InChI=1S/C13H22N5O3/c1-18(2,3)10(12(15)19)4-5-11-16-7-8(17-11)6-9(14)13(20)21/h7,9-10H,4-6,14H2,1-3H3,(H2-,15,19,20,21)/p+1/t9-,10-/m0/s1

> <INCHI_KEY>
InChIKey=JQTHSRDDMOFBHA-UWVGGRQHSA-O

> <SMILES>
C[N+](C)(C)[C@@H](CCc1ncc(C[C@H](N)C(O)=O)n1)C(N)=O

> <JCHEM_ACCEPTOR_COUNT>
6

> <JCHEM_DONOR_COUNT>
3

> <JCHEM_ACIDIC_PKA>
0.66

> <JCHEM_BASIC_PKA>
9.17

> <JCHEM_PHYSIOLOGICAL_CHARGE>
1

> <ALOGPS_LOGP>
-1.6

> <JCHEM_LOGP>
-7.8

> <ALOGPS_LOGS>
-3.4

> <JCHEM_POLARIZABILITY>
31.69

> <JCHEM_POLAR_SURFACE_AREA>
132.19

> <JCHEM_REFRACTIVITY>
87.93

> <JCHEM_ROTATABLE_BOND_COUNT>
8

> <ALOGPS_SOLUBILITY>
1.20e-01 g/l __ 

$$$$
