
  Mrv0541 02231216552D          

 23 23  0  0  1  0            999 V2000
    2.8579    0.0000    0.0000 C   0  0  0  0  0  0  0  0  0  0  0  0
    2.8579    0.8250    0.0000 C   0  0  0  0  0  0  0  0  0  0  0  0
    3.5724    1.2375    0.0000 O   0  0  0  0  0  0  0  0  0  0  0  0
    2.1434    1.2375    0.0000 N   0  0  0  0  0  0  0  0  0  0  0  0
    1.4289    0.8250    0.0000 C   0  0  1  0  0  0  0  0  0  0  0  0
    1.4289    0.0000    0.0000 C   0  0  1  0  0  0  0  0  0  0  0  0
    0.7145   -0.4125    0.0000 C   0  0  0  0  0  0  0  0  0  0  0  0
    0.0000    0.0000    0.0000 C   0  0  1  0  0  0  0  0  0  0  0  0
    0.0000    0.8250    0.0000 O   0  0  0  0  0  0  0  0  0  0  0  0
    0.7145    1.2375    0.0000 C   0  0  1  0  0  0  0  0  0  0  0  0
    0.7145    2.0625    0.0000 C   0  0  2  0  0  0  0  0  0  0  0  0
    1.4289    2.4750    0.0000 O   0  0  0  0  0  0  0  0  0  0  0  0
    0.0000    2.4750    0.0000 C   0  0  1  0  0  0  0  0  0  0  0  0
   -0.7145    2.0625    0.0000 O   0  0  0  0  0  0  0  0  0  0  0  0
    0.0000    3.3000    0.0000 C   0  0  0  0  0  0  0  0  0  0  0  0
   -0.7145    3.7125    0.0000 O   0  0  0  0  0  0  0  0  0  0  0  0
   -0.7145   -0.4125    0.0000 C   0  0  0  0  0  0  0  0  0  0  0  0
   -1.4289    0.0000    0.0000 O   0  0  0  0  0  0  0  0  0  0  0  0
   -0.7145   -1.2375    0.0000 O   0  0  0  0  0  0  0  0  0  0  0  0
    2.1434   -0.4125    0.0000 N   0  0  0  0  0  0  0  0  0  0  0  0
    2.1434   -1.2375    0.0000 C   0  0  0  0  0  0  0  0  0  0  0  0
    1.4289   -1.6500    0.0000 N   0  0  0  0  0  0  0  0  0  0  0  0
    2.8579   -1.6500    0.0000 N   0  0  0  0  0  0  0  0  0  0  0  0
  1  2  1  0  0  0  0
  2  3  2  0  0  0  0
  2  4  1  0  0  0  0
  5  4  1  1  0  0  0
  5  6  1  0  0  0  0
  6  7  1  0  0  0  0
  7  8  1  0  0  0  0
  8  9  1  0  0  0  0
  9 10  1  0  0  0  0
  5 10  1  0  0  0  0
 10 11  1  1  0  0  0
 11 12  1  1  0  0  0
 11 13  1  0  0  0  0
 13 14  1  1  0  0  0
 13 15  1  0  0  0  0
 15 16  1  0  0  0  0
  8 17  1  6  0  0  0
 17 18  1  0  0  0  0
 17 19  2  0  0  0  0
  6 20  1  6  0  0  0
 20 21  1  0  0  0  0
 21 22  1  0  0  0  0
 21 23  2  0  0  0  0
M  END
> <DRUGBANK_ID>
DB03420

> <DRUG_GROUPS>
experimental

> <GENERIC_NAME>
2,4-Deoxy-4-Guanidino-5-N-Acetyl-Neuraminic Acid

> <CHEMICAL_FORMULA>
C12H22N4O7

> <MOLECULAR_WEIGHT>
334.3257

> <EXACT_MASS>
334.148849078

> <IUPAC_NAME>
(2R,4R,5S,6R)-4-carbamimidamido-5-acetamido-6-[(1R,2S)-1,2,3-trihydroxypropyl]oxane-2-carboxylic acid

> <IUPAC_TRADITIONAL_NAME>
(2R,4R,5S,6R)-4-carbamimidamido-5-acetamido-6-[(1R,2S)-1,2,3-trihydroxypropyl]oxane-2-carboxylic acid

> <INCHI_IDENTIFIER>
InChI=1S/C12H22N4O7/c1-4(18)15-8-5(16-12(13)14)2-7(11(21)22)23-10(8)9(20)6(19)3-17/h5-10,17,19-20H,2-3H2,1H3,(H,15,18)(H,21,22)(H4,13,14,16)/t5-,6+,7-,8+,9-,10-/m1/s1

> <INCHI_KEY>
InChIKey=DAAUVSVERFXBSX-WHSUVHHGSA-N

> <SMILES>
CC(=O)N[C@H]1[C@@H](C[C@@H](O[C@H]1[C@H](O)[C@@H](O)CO)C(O)=O)NC(N)=N

> <JCHEM_ACCEPTOR_COUNT>
10

> <JCHEM_DONOR_COUNT>
8

> <JCHEM_ACIDIC_PKA>
3.65

> <JCHEM_BASIC_PKA>
12.13

> <JCHEM_PHYSIOLOGICAL_CHARGE>
0

> <ALOGPS_LOGP>
-2.6

> <JCHEM_LOGP>
-5.8

> <ALOGPS_LOGS>
-2.1

> <JCHEM_POLARIZABILITY>
31.98

> <JCHEM_POLAR_SURFACE_AREA>
198.22

> <JCHEM_REFRACTIVITY>
85.02

> <JCHEM_ROTATABLE_BOND_COUNT>
6

> <ALOGPS_SOLUBILITY>
2.78e+00 g/l __ 

$$$$
