3348
  Mrv0541 02231216522D          

 19 22  0  0  0  0            999 V2000
   -1.9880   -0.4576    0.0000 C   0  0  0  0  0  0  0  0  0  0  0  0
   -1.1451   -0.6081    0.0000 C   0  0  0  0  0  0  0  0  0  0  0  0
   -0.9942   -1.4214    0.0000 C   0  0  0  0  0  0  0  0  0  0  0  0
   -0.2312   -1.6013    0.0000 C   0  0  0  0  0  0  0  0  0  0  0  0
   -0.6162   -0.6987    0.0000 C   0  0  0  0  0  0  0  0  0  0  0  0
   -0.5365    0.3890    0.0000 C   0  0  0  0  0  0  0  0  0  0  0  0
    0.2428    0.4036    0.0000 C   0  0  0  0  0  0  0  0  0  0  0  0
    0.6899    1.1345    0.0000 C   0  0  0  0  0  0  0  0  0  0  0  0
    0.3030    1.8606    0.0000 C   0  0  0  0  0  0  0  0  0  0  0  0
   -0.4951    1.9009    0.0000 C   0  0  0  0  0  0  0  0  0  0  0  0
   -0.6852    2.7588    0.0000 O   0  0  0  0  0  0  0  0  0  0  0  0
   -0.9356    1.1881    0.0000 N   0  0  0  0  0  0  0  0  0  0  0  0
    0.4233   -0.3903    0.0000 C   0  0  0  0  0  0  0  0  0  0  0  0
   -0.4069   -0.1234    0.0000 C   0  0  0  0  0  0  0  0  0  0  0  0
    1.1194    0.0312    0.0000 N   0  0  0  0  0  0  0  0  0  0  0  0
    1.8331   -0.3526    0.0000 C   0  0  0  0  0  0  0  0  0  0  0  0
    1.8525   -1.1860    0.0000 C   0  0  0  0  0  0  0  0  0  0  0  0
    1.1466   -1.6121    0.0000 C   0  0  0  0  0  0  0  0  0  0  0  0
    0.4233   -1.2153    0.0000 C   0  0  0  0  0  0  0  0  0  0  0  0
  1  2  1  0  0  0  0
  2  3  2  0  0  0  0
  3  4  1  0  0  0  0
  4  5  1  0  0  0  0
  5  6  1  0  0  0  0
  6  7  2  0  0  0  0
  7  8  1  0  0  0  0
  8  9  2  0  0  0  0
  9 10  1  0  0  0  0
 10 11  2  0  0  0  0
 10 12  1  0  0  0  0
  6 12  1  0  0  0  0
  7 13  1  0  0  0  0
 13 14  1  0  0  0  0
  2 14  1  0  0  0  0
 13 15  1  0  0  0  0
 15 16  1  0  0  0  0
 16 17  1  0  0  0  0
 17 18  1  0  0  0  0
 18 19  1  0  0  0  0
  4 19  1  0  0  0  0
 13 19  1  0  0  0  0
M  END
> <DRUGBANK_ID>
DB03348

> <DRUG_GROUPS>
investigational

> <GENERIC_NAME>
Huperzine B

> <SYNONYMS>


> <CHEMICAL_FORMULA>
C16H20N2O

> <MOLECULAR_WEIGHT>
256.3428

> <EXACT_MASS>
256.157563272

> <IUPAC_NAME>
16-methyl-6,14-diazatetracyclo[7.5.3.0^{1,10}.0^{2,7}]heptadeca-2(7),3,16-trien-5-one

> <IUPAC_TRADITIONAL_NAME>
16-methyl-6,14-diazatetracyclo[7.5.3.0^{1,10}.0^{2,7}]heptadeca-2(7),3,16-trien-5-one

> <INCHI_IDENTIFIER>
InChI=1S/C16H20N2O/c1-10-7-11-8-14-13(4-5-15(19)18-14)16(9-10)12(11)3-2-6-17-16/h4-5,7,11-12,17H,2-3,6,8-9H2,1H3,(H,18,19)

> <INCHI_KEY>
InChIKey=YYWGABLTRMRUIT-UHFFFAOYSA-N

> <SMILES>
CC1=CC2CC3=C(C=CC(=O)N3)C3(C1)NCCCC23

> <JCHEM_ACCEPTOR_COUNT>
2

> <JCHEM_DONOR_COUNT>
2

> <JCHEM_ACIDIC_PKA>
11.22

> <JCHEM_BASIC_PKA>
9.77

> <JCHEM_PHYSIOLOGICAL_CHARGE>
1

> <ALOGPS_LOGP>
1.31

> <JCHEM_LOGP>
0.67

> <ALOGPS_LOGS>
-3.1

> <JCHEM_POLARIZABILITY>
28.43

> <JCHEM_POLAR_SURFACE_AREA>
41.13

> <JCHEM_REFRACTIVITY>
78.06

> <JCHEM_ROTATABLE_BOND_COUNT>
0

> <ALOGPS_SOLUBILITY>
1.88e-01 g/l __ 

$$$$
