
  Mrv0541 02231217082D          

 19 21  0  0  1  0            999 V2000
    1.1387   -4.2695    0.0000 O   0  0  0  0  0  0  0  0  0  0  0  0
    0.8838   -3.4849    0.0000 C   0  0  1  0  0  0  0  0  0  0  0  0
    0.0992   -3.2299    0.0000 C   0  0  2  0  0  0  0  0  0  0  0  0
   -0.5683   -3.7149    0.0000 C   0  0  0  0  0  0  0  0  0  0  0  0
   -0.4820   -4.5353    0.0000 F   0  0  0  0  0  0  0  0  0  0  0  0
    0.0992   -2.4049    0.0000 O   0  0  0  0  0  0  0  0  0  0  0  0
    0.8838   -2.1500    0.0000 C   0  0  2  0  0  0  0  0  0  0  0  0
    1.3687   -2.8174    0.0000 C   0  0  2  0  0  0  0  0  0  0  0  0
    2.1937   -2.8174    0.0000 O   0  0  0  0  0  0  0  0  0  0  0  0
    1.1387   -1.3654    0.0000 N   0  0  0  0  0  0  0  0  0  0  0  0
    0.6538   -0.6979    0.0000 C   0  0  0  0  0  0  0  0  0  0  0  0
    1.1387   -0.0305    0.0000 N   0  0  0  0  0  0  0  0  0  0  0  0
    1.9233   -0.2854    0.0000 C   0  0  1  0  0  0  0  0  0  0  0  0
    2.6378    0.1271    0.0000 C   0  0  0  0  0  0  0  0  0  0  0  0
    2.6378    0.9521    0.0000 N   0  0  0  0  0  0  0  0  0  0  0  0
    3.3523   -0.2854    0.0000 N   0  0  0  0  0  0  0  0  0  0  0  0
    3.3523   -1.1104    0.0000 C   0  0  0  0  0  0  0  0  0  0  0  0
    2.6378   -1.5229    0.0000 N   0  0  0  0  0  0  0  0  0  0  0  0
    1.9233   -1.1104    0.0000 C   0  0  0  0  0  0  0  0  0  0  0  0
  2  1  1  1  0  0  0
  2  3  1  0  0  0  0
  3  4  1  6  0  0  0
  4  5  1  0  0  0  0
  3  6  1  0  0  0  0
  6  7  1  0  0  0  0
  7  8  1  0  0  0  0
  2  8  1  0  0  0  0
  8  9  1  6  0  0  0
  7 10  1  1  0  0  0
 10 11  1  0  0  0  0
 11 12  2  0  0  0  0
 13 12  1  1  0  0  0
 13 14  1  0  0  0  0
 14 15  2  0  0  0  0
 14 16  1  0  0  0  0
 16 17  2  0  0  0  0
 17 18  1  0  0  0  0
 18 19  2  0  0  0  0
 10 19  1  0  0  0  0
 13 19  1  0  0  0  0
M  END
> <DRUGBANK_ID>
DB03716

> <DRUG_GROUPS>
experimental

> <GENERIC_NAME>
5'-Fluoro-5'-Deoxyadenosine

> <CHEMICAL_FORMULA>
C10H12FN5O3

> <MOLECULAR_WEIGHT>
269.2324

> <EXACT_MASS>
269.09241748

> <IUPAC_NAME>
(2R,3R,4R,5R)-2-(fluoromethyl)-5-[(5S)-6-imino-6,9-dihydro-5H-purin-9-yl]oxolane-3,4-diol

> <IUPAC_TRADITIONAL_NAME>
(2R,3R,4R,5R)-2-(fluoromethyl)-5-[(5S)-6-imino-5H-purin-9-yl]oxolane-3,4-diol

> <INCHI_IDENTIFIER>
InChI=1S/C10H12FN5O3/c11-1-4-6(17)7(18)10(19-4)16-3-15-5-8(12)13-2-14-9(5)16/h2-7,10,12,17-18H,1H2/t4-,5-,6-,7+,10+/m0/s1

> <INCHI_KEY>
InChIKey=HOMMEPGVMBJEAM-NWLJNKSNSA-N

> <SMILES>
O[C@H]1[C@H](CF)O[C@H]([C@@H]1O)N1C=N[C@@H]2C1=NC=NC2=N

> <JCHEM_ACCEPTOR_COUNT>
8

> <JCHEM_DONOR_COUNT>
3

> <JCHEM_ACIDIC_PKA>
12.55

> <JCHEM_BASIC_PKA>
-0.4

> <JCHEM_PHYSIOLOGICAL_CHARGE>
0

> <ALOGPS_LOGP>
-1.2

> <JCHEM_LOGP>
-2.3

> <ALOGPS_LOGS>
-2.9

> <JCHEM_POLARIZABILITY>
23.66

> <JCHEM_POLAR_SURFACE_AREA>
113.86

> <JCHEM_REFRACTIVITY>
69.8

> <JCHEM_ROTATABLE_BOND_COUNT>
2

> <ALOGPS_SOLUBILITY>
3.67e-01 g/l __ 

$$$$
