
  Mrv0541 02231216502D          

  8  7  0  0  1  0            999 V2000
   -0.1914    0.7145    0.0000 O   0  0  0  0  0  0  0  0  0  0  0  0
    0.5230    1.1270    0.0000 C   0  0  0  0  0  0  0  0  0  0  0  0
    1.2375    0.7145    0.0000 C   0  0  2  0  0  0  0  0  0  0  0  0
    1.2375   -0.1105    0.0000 O   0  0  0  0  0  0  0  0  0  0  0  0
    1.9520    1.1270    0.0000 C   0  0  1  0  0  0  0  0  0  0  0  0
    1.9520    1.9520    0.0000 O   0  0  0  0  0  0  0  0  0  0  0  0
    2.6664    0.7145    0.0000 C   0  0  0  0  0  0  0  0  0  0  0  0
    3.3809    1.1270    0.0000 O   0  0  0  0  0  0  0  0  0  0  0  0
  1  2  1  0  0  0  0
  2  3  1  0  0  0  0
  3  4  1  1  0  0  0
  3  5  1  0  0  0  0
  5  6  1  1  0  0  0
  5  7  1  0  0  0  0
  7  8  1  0  0  0  0
M  END
> <DRUGBANK_ID>
DB03278

> <DRUG_GROUPS>
experimental

> <GENERIC_NAME>
D-Treitol

> <CHEMICAL_FORMULA>
C4H10O4

> <MOLECULAR_WEIGHT>
122.1198

> <EXACT_MASS>
122.057908808

> <IUPAC_NAME>
(2S,3S)-butane-1,2,3,4-tetrol

> <IUPAC_TRADITIONAL_NAME>
D-treitol

> <INCHI_IDENTIFIER>
InChI=1S/C4H10O4/c5-1-3(7)4(8)2-6/h3-8H,1-2H2/t3-,4-/m0/s1

> <INCHI_KEY>
InChIKey=UNXHWFMMPAWVPI-IMJSIDKUSA-N

> <SMILES>
OC[C@H](O)[C@@H](O)CO

> <JCHEM_ACCEPTOR_COUNT>
4

> <JCHEM_DONOR_COUNT>
4

> <JCHEM_ACIDIC_PKA>
13.04

> <JCHEM_BASIC_PKA>
-3

> <JCHEM_PHYSIOLOGICAL_CHARGE>
0

> <ALOGPS_LOGP>
-2

> <JCHEM_LOGP>
-2.5

> <ALOGPS_LOGS>
0.98

> <JCHEM_POLARIZABILITY>
11.62

> <JCHEM_POLAR_SURFACE_AREA>
80.92

> <JCHEM_REFRACTIVITY>
26.48

> <JCHEM_ROTATABLE_BOND_COUNT>
3

> <ALOGPS_SOLUBILITY>
1.16e+03 g/l __ 

$$$$
