
  Mrv0541 02231216522D          

 24 26  0  0  1  0            999 V2000
    3.2789    2.0625    0.0000 N    0  0  0  0  0  0  0  0  0  0  0  0
    3.2789    1.2375    0.0000 C    0  0  0  0  0  0  0  0  0  0  0  0
    3.9934    0.8250    0.0000 N    0  0  0  0  0  0  0  0  0  0  0  0
    3.9934    0.0000    0.0000 C    0  0  0  0  0  0  0  0  0  0  0  0
    3.2789   -0.4125    0.0000 N    0  0  0  0  0  0  0  0  0  0  0  0
    2.5645    0.0000    0.0000 C    0  0  0  0  0  0  0  0  0  0  0  0
    2.5645    0.8250    0.0000 C    0  0  0  0  0  0  0  0  0  0  0  0
    1.7798    1.0799    0.0000 N    0  0  0  0  0  0  0  0  0  0  0  0
    1.2949    0.4125    0.0000 C    0  0  0  0  0  0  0  0  0  0  0  0
    0.4699    0.4125    0.0000 Br   0  0  0  0  0  0  0  0  0  0  0  0
    1.7798   -0.2549    0.0000 N    0  0  0  0  0  0  0  0  0  0  0  0
    1.5249   -1.0396    0.0000 C    0  0  2  0  0  0  0  0  0  0  0  0
    2.0098   -1.7070    0.0000 O    0  0  0  0  0  0  0  0  0  0  0  0
    1.5249   -2.3744    0.0000 C    0  0  1  0  0  0  0  0  0  0  0  0
    1.7798   -3.1591    0.0000 C    0  0  0  0  0  0  0  0  0  0  0  0
    1.2278   -3.7722    0.0000 O    0  0  0  0  0  0  0  0  0  0  0  0
    1.4827   -4.5568    0.0000 P    0  0  0  0  0  0  0  0  0  0  0  0
    1.7377   -5.3414    0.0000 O    0  0  0  0  0  0  0  0  0  0  0  0
    0.6981   -4.8117    0.0000 O    0  0  0  0  0  0  0  0  0  0  0  0
    2.2674   -4.3018    0.0000 O    0  0  0  0  0  0  0  0  0  0  0  0
    0.7403   -2.1195    0.0000 C    0  0  2  0  0  0  0  0  0  0  0  0
    0.0728   -2.6044    0.0000 O    0  0  0  0  0  0  0  0  0  0  0  0
    0.7403   -1.2945    0.0000 C    0  0  1  0  0  0  0  0  0  0  0  0
    0.0728   -0.8096    0.0000 O    0  0  0  0  0  0  0  0  0  0  0  0
  1  2  1  0  0  0  0
  2  3  2  0  0  0  0
  3  4  1  0  0  0  0
  4  5  2  0  0  0  0
  5  6  1  0  0  0  0
  6  7  2  0  0  0  0
  2  7  1  0  0  0  0
  7  8  1  0  0  0  0
  8  9  2  0  0  0  0
  9 10  1  0  0  0  0
  9 11  1  0  0  0  0
  6 11  1  0  0  0  0
 12 11  1  6  0  0  0
 12 13  1  0  0  0  0
 13 14  1  0  0  0  0
 14 15  1  1  0  0  0
 15 16  1  0  0  0  0
 16 17  1  0  0  0  0
 17 18  1  0  0  0  0
 17 19  1  0  0  0  0
 17 20  2  0  0  0  0
 14 21  1  0  0  0  0
 21 22  1  6  0  0  0
 21 23  1  0  0  0  0
 12 23  1  0  0  0  0
 23 24  1  1  0  0  0
M  END
> <DRUGBANK_ID>
DB03349

> <DRUG_GROUPS>
experimental

> <GENERIC_NAME>
8-Bromo-Adenosine-5'-Monophosphate

> <CHEMICAL_FORMULA>
C10H13BrN5O7P

> <MOLECULAR_WEIGHT>
426.117

> <EXACT_MASS>
424.973596954

> <IUPAC_NAME>
{[(2S,3R,4R,5R)-5-(6-amino-8-bromo-9H-purin-9-yl)-3,4-dihydroxyoxolan-2-yl]methoxy}phosphonic acid

> <IUPAC_TRADITIONAL_NAME>
[(2S,3R,4R,5R)-5-(6-amino-8-bromopurin-9-yl)-3,4-dihydroxyoxolan-2-yl]methoxyphosphonic acid

> <INCHI_IDENTIFIER>
InChI=1S/C10H13BrN5O7P/c11-10-15-4-7(12)13-2-14-8(4)16(10)9-6(18)5(17)3(23-9)1-22-24(19,20)21/h2-3,5-6,9,17-18H,1H2,(H2,12,13,14)(H2,19,20,21)/t3-,5-,6+,9+/m0/s1

> <INCHI_KEY>
InChIKey=DNPIJKNXFSPNNY-BZKDHIKHSA-N

> <SMILES>
NC1=NC=NC2=C1N=C(Br)N2[C@@H]1O[C@@H](COP(O)(O)=O)[C@H](O)[C@H]1O

> <JCHEM_ACCEPTOR_COUNT>
10

> <JCHEM_DONOR_COUNT>
5

> <JCHEM_ACIDIC_PKA>
1.22

> <JCHEM_BASIC_PKA>
4

> <JCHEM_PHYSIOLOGICAL_CHARGE>
-2

> <ALOGPS_LOGP>
-2.5

> <JCHEM_LOGP>
-3.7

> <ALOGPS_LOGS>
-2.1

> <JCHEM_POLARIZABILITY>
32.87

> <JCHEM_POLAR_SURFACE_AREA>
186.07

> <JCHEM_REFRACTIVITY>
81.69

> <JCHEM_ROTATABLE_BOND_COUNT>
4

> <ALOGPS_SOLUBILITY>
3.26e+00 g/l __ 

$$$$
