
  Mrv0541 02231217052D          

 24 25  0  0  1  0            999 V2000
    1.4243   -4.9595    0.0000 O   0  0  0  0  0  0  0  0  0  0  0  0
    0.8112   -4.4075    0.0000 C   0  0  2  0  0  0  0  0  0  0  0  0
    0.0042   -4.5790    0.0000 C   0  0  0  0  0  0  0  0  0  0  0  0
   -0.4083   -3.8645    0.0000 C   0  0  1  0  0  0  0  0  0  0  0  0
    0.1437   -3.2514    0.0000 O   0  0  0  0  0  0  0  0  0  0  0  0
    0.8974   -3.5870    0.0000 C   0  0  1  0  0  0  0  0  0  0  0  0
    1.6119   -3.1745    0.0000 C   0  0  0  0  0  0  0  0  0  0  0  0
    2.3264   -3.5870    0.0000 O   0  0  0  0  0  0  0  0  0  0  0  0
    3.0408   -3.1745    0.0000 P   0  0  1  0  0  0  0  0  0  0  0  0
    2.6283   -2.4600    0.0000 O   0  0  0  0  0  0  0  0  0  0  0  0
    3.4533   -3.8890    0.0000 O   0  0  0  0  0  0  0  0  0  0  0  0
    3.7553   -2.7620    0.0000 N   0  0  0  0  0  0  0  0  0  0  0  0
    4.4698   -3.1745    0.0000 P   0  0  0  0  0  0  0  0  0  0  0  0
    5.1842   -3.5870    0.0000 O   0  0  0  0  0  0  0  0  0  0  0  0
    4.8823   -2.4600    0.0000 O   0  0  0  0  0  0  0  0  0  0  0  0
    4.0573   -3.8890    0.0000 O   0  0  0  0  0  0  0  0  0  0  0  0
   -1.2288   -3.7783    0.0000 N   0  0  0  0  0  0  0  0  0  0  0  0
   -1.7137   -4.4457    0.0000 C   0  0  0  0  0  0  0  0  0  0  0  0
   -2.5342   -4.3595    0.0000 C   0  0  0  0  0  0  0  0  0  0  0  0
   -2.8697   -3.6058    0.0000 C   0  0  0  0  0  0  0  0  0  0  0  0
   -3.6902   -3.5196    0.0000 O   0  0  0  0  0  0  0  0  0  0  0  0
   -2.3848   -2.9384    0.0000 N   0  0  0  0  0  0  0  0  0  0  0  0
   -1.5643   -3.0246    0.0000 C   0  0  0  0  0  0  0  0  0  0  0  0
   -1.0794   -2.3572    0.0000 O   0  0  0  0  0  0  0  0  0  0  0  0
  2  1  1  6  0  0  0
  2  3  1  0  0  0  0
  3  4  1  0  0  0  0
  4  5  1  0  0  0  0
  5  6  1  0  0  0  0
  2  6  1  0  0  0  0
  6  7  1  1  0  0  0
  7  8  1  0  0  0  0
  8  9  1  0  0  0  0
  9 10  1  1  0  0  0
  9 11  2  0  0  0  0
  9 12  1  6  0  0  0
 12 13  1  0  0  0  0
 13 14  1  0  0  0  0
 13 15  1  0  0  0  0
 13 16  2  0  0  0  0
  4 17  1  6  0  0  0
 17 18  1  0  0  0  0
 18 19  2  0  0  0  0
 19 20  1  0  0  0  0
 20 21  2  0  0  0  0
 20 22  1  0  0  0  0
 22 23  1  0  0  0  0
 17 23  1  0  0  0  0
 23 24  2  0  0  0  0
M  END
> <DRUGBANK_ID>
DB03641

> <DRUG_GROUPS>
experimental

> <GENERIC_NAME>
2'-deoxyuridine 5'-alpha,beta-imido-diphosphate

> <SYNONYMS>


> <CHEMICAL_FORMULA>
C9H15N3O10P2

> <MOLECULAR_WEIGHT>
387.177

> <EXACT_MASS>
387.023266739

> <IUPAC_NAME>
[({[(2S,3R,5R)-5-(2,4-dioxo-1,2,3,4-tetrahydropyrimidin-1-yl)-3-hydroxyoxolan-2-yl]methoxy}(hydroxy)phosphoryl)amino]phosphonic acid

> <IUPAC_TRADITIONAL_NAME>
{[(2S,3R,5R)-5-(2,4-dioxo-3H-pyrimidin-1-yl)-3-hydroxyoxolan-2-yl]methoxy(hydroxy)phosphoryl}aminophosphonic acid

> <INCHI_IDENTIFIER>
InChI=1S/C9H15N3O10P2/c13-5-3-8(12-2-1-7(14)10-9(12)15)22-6(5)4-21-24(19,20)11-23(16,17)18/h1-2,5-6,8,13H,3-4H2,(H,10,14,15)(H4,11,16,17,18,19,20)/t5-,6+,8-/m1/s1

> <INCHI_KEY>
InChIKey=COFNIXBQVWFHTR-GKROBHDKSA-N

> <SMILES>
O[C@@H]1C[C@@H](O[C@H]1CO[P@@](O)(=O)NP(O)(O)=O)N1C=CC(=O)NC1=O

> <JCHEM_ACCEPTOR_COUNT>
9

> <JCHEM_DONOR_COUNT>
6

> <JCHEM_ACIDIC_PKA>
1.06

> <JCHEM_BASIC_PKA>
-3.2

> <JCHEM_PHYSIOLOGICAL_CHARGE>
-3

> <ALOGPS_LOGP>
-1.3

> <JCHEM_LOGP>
-2.8

> <ALOGPS_LOGS>
-1.7

> <JCHEM_POLARIZABILITY>
30.62

> <JCHEM_POLAR_SURFACE_AREA>
194.96

> <JCHEM_REFRACTIVITY>
74.75

> <JCHEM_ROTATABLE_BOND_COUNT>
6

> <ALOGPS_SOLUBILITY>
7.58e+00 g/l __ 

$$$$
