
  Mrv0541 02231217202D          

 77 84  0  0  1  0            999 V2000
    6.9400   -2.7713    0.0000 O   0  0  0  0  0  0  0  0  0  0  0  0
    6.2368   -2.3756    0.0000 C   0  0  0  0  0  0  0  0  0  0  0  0
    6.2279   -1.5690    0.0000 C   0  0  1  0  0  0  0  0  0  0  0  0
    6.9248   -1.1685    0.0000 O   0  0  0  0  0  0  0  0  0  0  0  0
    6.9483   -0.3429    0.0000 C   0  0  1  0  0  0  0  0  0  0  0  0
    7.7857   -0.2200    0.0000 O   0  0  0  0  0  0  0  0  0  0  0  0
    8.5918   -0.4515    0.0000 C   0  0  2  0  0  0  0  0  0  0  0  0
    9.2515    0.0506    0.0000 C   0  0  2  0  0  0  0  0  0  0  0  0
    9.1373    0.8492    0.0000 C   0  0  0  0  0  0  0  0  0  0  0  0
    9.7720    1.3474    0.0000 O   0  0  0  0  0  0  0  0  0  0  0  0
   10.0151   -0.2429    0.0000 O   0  0  0  0  0  0  0  0  0  0  0  0
   10.1421   -1.0628    0.0000 C   0  0  2  0  0  0  0  0  0  0  0  0
   10.7602   -1.6409    0.0000 O   0  0  0  0  0  0  0  0  0  0  0  0
   11.0818   -2.4155    0.0000 C   0  0  2  0  0  0  0  0  0  0  0  0
   10.5354   -3.0336    0.0000 C   0  0  2  0  0  0  0  0  0  0  0  0
    9.7469   -2.8627    0.0000 C   0  0  0  0  0  0  0  0  0  0  0  0
    9.2046   -3.4602    0.0000 O   0  0  0  0  0  0  0  0  0  0  0  0
   10.7707   -3.8020    0.0000 O   0  0  0  0  0  0  0  0  0  0  0  0
   11.5704   -4.0087    0.0000 C   0  0  1  0  0  0  0  0  0  0  0  0
   11.5038   -4.8524    0.0000 O   0  0  0  0  0  0  0  0  0  0  0  0
   11.0987   -5.5867    0.0000 C   0  0  2  0  0  0  0  0  0  0  0  0
   11.4415   -6.3416    0.0000 C   0  0  2  0  0  0  0  0  0  0  0  0
   12.2455   -6.4082    0.0000 C   0  0  0  0  0  0  0  0  0  0  0  0
   12.7052   -5.7451    0.0000 O   0  0  0  0  0  0  0  0  0  0  0  0
   10.9855   -7.0208    0.0000 O   0  0  0  0  0  0  0  0  0  0  0  0
   10.1578   -6.9622    0.0000 C   0  0  1  0  0  0  0  0  0  0  0  0
    9.4566   -7.4362    0.0000 O   0  0  0  0  0  0  0  0  0  0  0  0
    8.6300   -7.5773    0.0000 C   0  0  2  0  0  0  0  0  0  0  0  0
    8.2535   -8.3159    0.0000 C   0  0  2  0  0  0  0  0  0  0  0  0
    8.7028   -8.9860    0.0000 C   0  0  0  0  0  0  0  0  0  0  0  0
    8.3471   -9.7101    0.0000 O   0  0  0  0  0  0  0  0  0  0  0  0
    7.4381   -8.3829    0.0000 O   0  0  0  0  0  0  0  0  0  0  0  0
    6.9680   -7.6992    0.0000 C   0  0  1  0  0  0  0  0  0  0  0  0
    6.1602   -7.4465    0.0000 O   0  0  0  0  0  0  0  0  0  0  0  0
    5.5344   -6.8882    0.0000 C   0  0  2  0  0  0  0  0  0  0  0  0
    4.7223   -7.0544    0.0000 C   0  0  2  0  0  0  0  0  0  0  0  0
    4.4785   -7.8234    0.0000 C   0  0  0  0  0  0  0  0  0  0  0  0
    3.6906   -7.9969    0.0000 O   0  0  0  0  0  0  0  0  0  0  0  0
    4.1615   -6.4586    0.0000 O   0  0  0  0  0  0  0  0  0  0  0  0
    4.4030   -5.6648    0.0000 C   0  0  1  0  0  0  0  0  0  0  0  0
    4.0968   -4.8757    0.0000 O   0  0  0  0  0  0  0  0  0  0  0  0
    4.1431   -4.0384    0.0000 C   0  0  2  0  0  0  0  0  0  0  0  0
    3.5068   -3.5070    0.0000 C   0  0  2  0  0  0  0  0  0  0  0  0
    2.7535   -3.7959    0.0000 C   0  0  0  0  0  0  0  0  0  0  0  0
    2.1267   -3.2879    0.0000 O   0  0  0  0  0  0  0  0  0  0  0  0
    3.6230   -2.6972    0.0000 O   0  0  0  0  0  0  0  0  0  0  0  0
    4.3942   -2.3909    0.0000 C   0  0  1  0  0  0  0  0  0  0  0  0
    4.8202   -1.6596    0.0000 O   0  0  0  0  0  0  0  0  0  0  0  0
    5.5038   -1.1738    0.0000 C   0  0  1  0  0  0  0  0  0  0  0  0
    5.5225   -0.3449    0.0000 C   0  0  2  0  0  0  0  0  0  0  0  0
    4.8270    0.0639    0.0000 O   0  0  0  0  0  0  0  0  0  0  0  0
    6.2281    0.0691    0.0000 C   0  0  1  0  0  0  0  0  0  0  0  0
    6.2236    0.8759    0.0000 O   0  0  0  0  0  0  0  0  0  0  0  0
    5.0250   -2.9242    0.0000 C   0  0  2  0  0  0  0  0  0  0  0  0
    5.7805   -2.6409    0.0000 O   0  0  0  0  0  0  0  0  0  0  0  0
    4.9037   -3.7185    0.0000 C   0  0  1  0  0  0  0  0  0  0  0  0
    5.5399   -4.2146    0.0000 O   0  0  0  0  0  0  0  0  0  0  0  0
    5.2132   -5.5040    0.0000 C   0  0  2  0  0  0  0  0  0  0  0  0
    5.4626   -4.7368    0.0000 O   0  0  0  0  0  0  0  0  0  0  0  0
    5.7586   -6.0943    0.0000 C   0  0  1  0  0  0  0  0  0  0  0  0
    6.5430   -5.9060    0.0000 O   0  0  0  0  0  0  0  0  0  0  0  0
    7.3475   -6.9655    0.0000 C   0  0  2  0  0  0  0  0  0  0  0  0
    6.9032   -6.2920    0.0000 O   0  0  0  0  0  0  0  0  0  0  0  0
    8.1490   -6.9070    0.0000 C   0  0  1  0  0  0  0  0  0  0  0  0
    8.4909   -6.1763    0.0000 O   0  0  0  0  0  0  0  0  0  0  0  0
    9.8208   -6.2080    0.0000 C   0  0  2  0  0  0  0  0  0  0  0  0
    9.0173   -6.1354    0.0000 O   0  0  0  0  0  0  0  0  0  0  0  0
   10.2749   -5.5450    0.0000 C   0  0  1  0  0  0  0  0  0  0  0  0
    9.9168   -4.8219    0.0000 O   0  0  0  0  0  0  0  0  0  0  0  0
   12.1323   -3.3982    0.0000 C   0  0  2  0  0  0  0  0  0  0  0  0
   12.9198   -3.5734    0.0000 O   0  0  0  0  0  0  0  0  0  0  0  0
   11.8857   -2.6182    0.0000 C   0  0  1  0  0  0  0  0  0  0  0  0
   12.4390   -2.0310    0.0000 O   0  0  0  0  0  0  0  0  0  0  0  0
    9.4819   -1.5592    0.0000 C   0  0  2  0  0  0  0  0  0  0  0  0
    9.5899   -2.3587    0.0000 O   0  0  0  0  0  0  0  0  0  0  0  0
    8.7343   -1.2642    0.0000 C   0  0  1  0  0  0  0  0  0  0  0  0
    8.1092   -1.7740    0.0000 O   0  0  0  0  0  0  0  0  0  0  0  0
  1  2  1  0  0  0  0
  3  2  1  6  0  0  0
  3  4  1  0  0  0  0
  5  4  1  6  0  0  0
  5  6  1  0  0  0  0
  7  6  1  6  0  0  0
  7  8  1  0  0  0  0
  8  9  1  6  0  0  0
  9 10  1  0  0  0  0
  8 11  1  0  0  0  0
 12 11  1  6  0  0  0
 12 13  1  0  0  0  0
 14 13  1  1  0  0  0
 14 15  1  0  0  0  0
 15 16  1  1  0  0  0
 16 17  1  0  0  0  0
 15 18  1  0  0  0  0
 19 18  1  6  0  0  0
 19 20  1  0  0  0  0
 21 20  1  6  0  0  0
 21 22  1  0  0  0  0
 22 23  1  6  0  0  0
 23 24  1  0  0  0  0
 22 25  1  0  0  0  0
 26 25  1  1  0  0  0
 26 27  1  0  0  0  0
 28 27  1  6  0  0  0
 28 29  1  0  0  0  0
 29 30  1  6  0  0  0
 30 31  1  0  0  0  0
 29 32  1  0  0  0  0
 33 32  1  1  0  0  0
 33 34  1  0  0  0  0
 35 34  1  6  0  0  0
 35 36  1  0  0  0  0
 36 37  1  6  0  0  0
 37 38  1  0  0  0  0
 36 39  1  0  0  0  0
 40 39  1  1  0  0  0
 40 41  1  0  0  0  0
 42 41  1  6  0  0  0
 42 43  1  0  0  0  0
 43 44  1  6  0  0  0
 44 45  1  0  0  0  0
 43 46  1  0  0  0  0
 47 46  1  1  0  0  0
 47 48  1  0  0  0  0
 49 48  1  1  0  0  0
  3 49  1  0  0  0  0
 49 50  1  0  0  0  0
 50 51  1  6  0  0  0
 50 52  1  0  0  0  0
  5 52  1  0  0  0  0
 52 53  1  1  0  0  0
 47 54  1  0  0  0  0
 54 55  1  6  0  0  0
 54 56  1  0  0  0  0
 42 56  1  0  0  0  0
 56 57  1  1  0  0  0
 40 58  1  0  0  0  0
 58 59  1  6  0  0  0
 58 60  1  0  0  0  0
 35 60  1  0  0  0  0
 60 61  1  1  0  0  0
 33 62  1  0  0  0  0
 62 63  1  6  0  0  0
 62 64  1  0  0  0  0
 28 64  1  0  0  0  0
 64 65  1  1  0  0  0
 26 66  1  0  0  0  0
 66 67  1  6  0  0  0
 66 68  1  0  0  0  0
 21 68  1  0  0  0  0
 68 69  1  1  0  0  0
 19 70  1  0  0  0  0
 70 71  1  1  0  0  0
 70 72  1  0  0  0  0
 14 72  1  0  0  0  0
 72 73  1  6  0  0  0
 12 74  1  0  0  0  0
 74 75  1  6  0  0  0
 74 76  1  0  0  0  0
  7 76  1  0  0  0  0
 76 77  1  1  0  0  0
M  END
> <DRUGBANK_ID>
DB03995

> <DRUG_GROUPS>
experimental

> <GENERIC_NAME>
Cyclo-Hepta-Amylose

> <CHEMICAL_FORMULA>
C42H70O35

> <MOLECULAR_WEIGHT>
1134.9842

> <EXACT_MASS>
1134.36976401

> <IUPAC_NAME>
(1S,3R,5S,6S,8S,10R,11S,13S,15S,16S,18S,20S,21S,23S,25S,26S,28S,30S,31S,33S,35S,36R,37R,38R,39R,40R,41R,42R,43R,44R,45R,46R,47R,48R,49R)-5,10,15,20,25,30,35-heptakis(hydroxymethyl)-2,4,7,9,12,14,17,19,22,24,27,29,32,34-tetradecaoxaoctacyclo[31.2.2.2^{3,6}.2^{8,11}.2^{13,16}.2^{18,21}.2^{23,26}.2^{28,31}]nonatetracontane-36,37,38,39,40,41,42,43,44,45,46,47,48,49-tetradecol

> <IUPAC_TRADITIONAL_NAME>
cyclo-hepta-amylose

> <INCHI_IDENTIFIER>
InChI=1S/C42H70O35/c43-1-8-29-15(50)22(57)36(64-8)72-30-9(2-44)66-38(24(59)17(30)52)74-32-11(4-46)68-40(26(61)19(32)54)76-34-13(6-48)70-42(28(63)21(34)56)77-35-14(7-49)69-41(27(62)20(35)55)75-33-12(5-47)67-39(25(60)18(33)53)73-31-10(3-45)65-37(71-29)23(58)16(31)51/h8-63H,1-7H2/t8-,9-,10-,11-,12-,13-,14+,15+,16+,17+,18+,19+,20+,21+,22+,23+,24+,25+,26+,27+,28+,29+,30+,31+,32+,33+,34+,35+,36-,37-,38-,39+,40-,41-,42-/m0/s1

> <INCHI_KEY>
InChIKey=WHGYBXFWUBPSRW-RUPPEMBSSA-N

> <SMILES>
OC[C@H]1O[C@H]2O[C@@H]3[C@H](CO)O[C@H](O[C@@H]4[C@H](CO)O[C@@H](O[C@@H]5[C@H](CO)O[C@@H](O[C@@H]6[C@H](CO)O[C@@H](O[C@@H]7[C@H](CO)O[C@@H](O[C@@H]8[C@H](CO)O[C@@H](O[C@H]1[C@H](O)[C@H]2O)[C@H](O)[C@H]8O)[C@H](O)[C@H]7O)[C@H](O)[C@H]6O)[C@H](O)[C@H]5O)[C@H](O)[C@H]4O)[C@H](O)[C@H]3O

> <JCHEM_ACCEPTOR_COUNT>
35

> <JCHEM_DONOR_COUNT>
21

> <JCHEM_ACIDIC_PKA>
11.51

> <JCHEM_BASIC_PKA>
-3.7

> <JCHEM_PHYSIOLOGICAL_CHARGE>
0

> <ALOGPS_LOGP>
-2.3

> <JCHEM_LOGP>
-12

> <ALOGPS_LOGS>
-0.1

> <JCHEM_POLARIZABILITY>
106.32

> <JCHEM_POLAR_SURFACE_AREA>
554.05

> <JCHEM_REFRACTIVITY>
226.89

> <JCHEM_ROTATABLE_BOND_COUNT>
7

> <ALOGPS_SOLUBILITY>
9.10e+02 g/l __ 

$$$$
