
  Mrv0541 02231216572D          

 44 47  0  0  1  0            999 V2000
   -7.3612   -4.3974    0.0000 C   0  0  0  0  0  0  0  0  0  0  0  0
   -6.9487   -5.1118    0.0000 C   0  0  0  0  0  0  0  0  0  0  0  0
   -7.3612   -5.8263    0.0000 C   0  0  0  0  0  0  0  0  0  0  0  0
   -8.1862   -5.8263    0.0000 C   0  0  0  0  0  0  0  0  0  0  0  0
   -8.5987   -6.5408    0.0000 C   0  0  0  0  0  0  0  0  0  0  0  0
   -9.4237   -6.5408    0.0000 C   0  0  0  0  0  0  0  0  0  0  0  0
   -9.8362   -5.8263    0.0000 C   0  0  0  0  0  0  0  0  0  0  0  0
   -9.8362   -7.2552    0.0000 C   0  0  0  0  0  0  0  0  0  0  0  0
  -10.6612   -7.2552    0.0000 C   0  0  0  0  0  0  0  0  0  0  0  0
  -11.0737   -7.9697    0.0000 C   0  0  1  0  0  0  0  0  0  0  0  0
  -10.3592   -8.3822    0.0000 O   0  0  0  0  0  0  0  0  0  0  0  0
  -11.0737   -8.7947    0.0000 C   0  0  1  0  0  0  0  0  0  0  0  0
  -10.6612   -9.5092    0.0000 C   0  0  0  0  0  0  0  0  0  0  0  0
  -11.7882   -9.2072    0.0000 C   0  0  0  0  0  0  0  0  0  0  0  0
  -12.5026   -8.7947    0.0000 C   0  0  2  0  0  0  0  0  0  0  0  0
  -13.2171   -9.2072    0.0000 O   0  0  0  0  0  0  0  0  0  0  0  0
  -12.5026   -7.9697    0.0000 C   0  0  0  0  0  0  0  0  0  0  0  0
  -11.7882   -7.5572    0.0000 C   0  0  0  0  0  0  0  0  0  0  0  0
  -12.1755   -6.8288    0.0000 C   0  0  0  0  0  0  0  0  0  0  0  0
  -11.4008   -6.8288    0.0000 C   0  0  0  0  0  0  0  0  0  0  0  0
   -6.1237   -5.1118    0.0000 C   0  0  0  0  0  0  0  0  0  0  0  0
   -5.7112   -4.3974    0.0000 C   0  0  0  0  0  0  0  0  0  0  0  0
   -4.8862   -4.3974    0.0000 C   0  0  0  0  0  0  0  0  0  0  0  0
   -4.4737   -3.6829    0.0000 C   0  0  0  0  0  0  0  0  0  0  0  0
   -3.6487   -3.6829    0.0000 C   0  0  0  0  0  0  0  0  0  0  0  0
   -3.2362   -4.3974    0.0000 C   0  0  0  0  0  0  0  0  0  0  0  0
   -3.2362   -2.9684    0.0000 C   0  0  0  0  0  0  0  0  0  0  0  0
   -2.4112   -2.9684    0.0000 C   0  0  0  0  0  0  0  0  0  0  0  0
   -1.9987   -2.2539    0.0000 C   0  0  0  0  0  0  0  0  0  0  0  0
   -1.1737   -2.2539    0.0000 C   0  0  0  0  0  0  0  0  0  0  0  0
   -0.7612   -2.9684    0.0000 C   0  0  0  0  0  0  0  0  0  0  0  0
   -0.7612   -1.5395    0.0000 C   0  0  0  0  0  0  0  0  0  0  0  0
    0.0638   -1.5395    0.0000 C   0  0  0  0  0  0  0  0  0  0  0  0
    0.4763   -0.8250    0.0000 C   0  0  2  0  0  0  0  0  0  0  0  0
   -0.2382   -0.4125    0.0000 O   0  0  0  0  0  0  0  0  0  0  0  0
    0.4763    0.0000    0.0000 C   0  0  2  0  0  0  0  0  0  0  0  0
    0.0638    0.7145    0.0000 C   0  0  0  0  0  0  0  0  0  0  0  0
    1.1908    0.4125    0.0000 C   0  0  0  0  0  0  0  0  0  0  0  0
    1.9053    0.0000    0.0000 C   0  0  2  0  0  0  0  0  0  0  0  0
    2.6197    0.4125    0.0000 O   0  0  0  0  0  0  0  0  0  0  0  0
    1.9053   -0.8250    0.0000 C   0  0  0  0  0  0  0  0  0  0  0  0
    1.1908   -1.2375    0.0000 C   0  0  0  0  0  0  0  0  0  0  0  0
    1.5781   -1.9659    0.0000 C   0  0  0  0  0  0  0  0  0  0  0  0
    0.8035   -1.9659    0.0000 C   0  0  0  0  0  0  0  0  0  0  0  0
  1  2  1  0  0  0  0
  2  3  1  0  0  0  0
  3  4  2  0  0  0  0
  4  5  1  0  0  0  0
  5  6  2  0  0  0  0
  6  7  1  0  0  0  0
  6  8  1  0  0  0  0
  8  9  2  0  0  0  0
 10  9  1  1  0  0  0
 10 11  1  0  0  0  0
 11 12  1  0  0  0  0
 10 12  1  0  0  0  0
 12 13  1  1  0  0  0
 12 14  1  0  0  0  0
 14 15  1  0  0  0  0
 15 16  1  6  0  0  0
 15 17  1  0  0  0  0
 17 18  1  0  0  0  0
 10 18  1  0  0  0  0
 18 19  1  0  0  0  0
 18 20  1  0  0  0  0
  2 21  2  0  0  0  0
 21 22  1  0  0  0  0
 22 23  2  0  0  0  0
 23 24  1  0  0  0  0
 24 25  2  0  0  0  0
 25 26  1  0  0  0  0
 25 27  1  0  0  0  0
 27 28  2  0  0  0  0
 28 29  1  0  0  0  0
 29 30  2  0  0  0  0
 30 31  1  0  0  0  0
 30 32  1  0  0  0  0
 32 33  2  0  0  0  0
 34 33  1  6  0  0  0
 34 35  1  0  0  0  0
 35 36  1  0  0  0  0
 34 36  1  0  0  0  0
 36 37  1  6  0  0  0
 36 38  1  0  0  0  0
 38 39  1  0  0  0  0
 39 40  1  6  0  0  0
 39 41  1  0  0  0  0
 41 42  1  0  0  0  0
 34 42  1  0  0  0  0
 42 43  1  0  0  0  0
 42 44  1  0  0  0  0
M  END
> <DRUGBANK_ID>
DB03460

> <DRUG_GROUPS>
experimental

> <GENERIC_NAME>
Violaxanthin

> <CHEMICAL_FORMULA>
C40H56O4

> <MOLECULAR_WEIGHT>
600.8702

> <EXACT_MASS>
600.41786028

> <IUPAC_NAME>
(1R,3R,6S)-6-[(1E,3E,5E,7E,9E,11E,13E,15E,17E)-18-[(1R,4R,6S)-4-hydroxy-2,2,6-trimethyl-7-oxabicyclo[4.1.0]heptan-1-yl]-3,7,12,16-tetramethyloctadeca-1,3,5,7,9,11,13,15,17-nonaen-1-yl]-1,5,5-trimethyl-7-oxabicyclo[4.1.0]heptan-3-ol

> <IUPAC_TRADITIONAL_NAME>
violaxanthin

> <INCHI_IDENTIFIER>
InChI=1S/C40H56O4/c1-29(17-13-19-31(3)21-23-39-35(5,6)25-33(41)27-37(39,9)43-39)15-11-12-16-30(2)18-14-20-32(4)22-24-40-36(7,8)26-34(42)28-38(40,10)44-40/h11-24,33-34,41-42H,25-28H2,1-10H3/b12-11+,17-13+,18-14+,23-21+,24-22+,29-15+,30-16+,31-19+,32-20+/t33-,34-,37-,38+,39+,40-/m1/s1

> <INCHI_KEY>
InChIKey=SZCBXWMUOPQSOX-PSXNNQPNSA-N

> <SMILES>
O[C@H]1C[C@]2(C)O[C@]2(\C=C\C(\C)=C\C=C\C(\C)=C\C=C\C=C(/C)\C=C\C=C(/C)\C=C\[C@@]23O[C@]2(C)C[C@H](O)CC3(C)C)C(C)(C)C1

> <JCHEM_ACCEPTOR_COUNT>
4

> <JCHEM_DONOR_COUNT>
2

> <JCHEM_ACIDIC_PKA>
14.84

> <JCHEM_BASIC_PKA>
-2.7

> <JCHEM_PHYSIOLOGICAL_CHARGE>
0

> <ALOGPS_LOGP>
8.33

> <JCHEM_LOGP>
7.26

> <ALOGPS_LOGS>
-6

> <JCHEM_POLARIZABILITY>
74.29

> <JCHEM_POLAR_SURFACE_AREA>
65.52

> <JCHEM_REFRACTIVITY>
192.33

> <JCHEM_ROTATABLE_BOND_COUNT>
10

> <ALOGPS_SOLUBILITY>
5.68e-04 g/l __ 

$$$$
