
  Mrv0541 02231217062D          

  8  7  0  0  0  0            999 V2000
    2.0625    0.7145    0.0000 O   0  0  0  0  0  0  0  0  0  0  0  0
    1.2375    0.7145    0.0000 C   0  0  0  0  0  0  0  0  0  0  0  0
    0.8250    1.4289    0.0000 C   0  0  0  0  0  0  0  0  0  0  0  0
    1.2375    2.1434    0.0000 O   0  5  0  0  0  0  0  0  0  0  0  0
    0.0000    1.4289    0.0000 O   0  0  0  0  0  0  0  0  0  0  0  0
    0.8250    0.0000    0.0000 C   0  0  0  0  0  0  0  0  0  0  0  0
    1.2375   -0.7145    0.0000 O   0  5  0  0  0  0  0  0  0  0  0  0
    0.0000    0.0000    0.0000 O   0  0  0  0  0  0  0  0  0  0  0  0
  1  2  1  0  0  0  0
  2  3  1  0  0  0  0
  3  4  1  0  0  0  0
  3  5  2  0  0  0  0
  2  6  1  0  0  0  0
  6  7  1  0  0  0  0
  6  8  2  0  0  0  0
M  END
> <DRUGBANK_ID>
DB03680

> <DRUG_GROUPS>
experimental

> <GENERIC_NAME>
Tartronate

> <CHEMICAL_FORMULA>
C3H2O5

> <MOLECULAR_WEIGHT>
118.045

> <EXACT_MASS>
117.990223174

> <IUPAC_NAME>
2-hydroxypropanedioate

> <IUPAC_TRADITIONAL_NAME>
tartronate

> <INCHI_IDENTIFIER>
InChI=1S/C3H4O5/c4-1(2(5)6)3(7)8/h1,4H,(H,5,6)(H,7,8)/p-2

> <INCHI_KEY>
InChIKey=ROBFUDYVXSDBQM-UHFFFAOYSA-L

> <SMILES>
OC(C([O-])=O)C([O-])=O

> <JCHEM_ACCEPTOR_COUNT>
5

> <JCHEM_DONOR_COUNT>
1

> <JCHEM_ACIDIC_PKA>
2.16

> <JCHEM_BASIC_PKA>
-4.9

> <JCHEM_PHYSIOLOGICAL_CHARGE>
-2

> <ALOGPS_LOGP>
-0.92

> <JCHEM_LOGP>
-1

> <ALOGPS_LOGS>
0.55

> <JCHEM_POLARIZABILITY>
8.16

> <JCHEM_POLAR_SURFACE_AREA>
100.49

> <JCHEM_REFRACTIVITY>
42

> <JCHEM_ROTATABLE_BOND_COUNT>
2

> <ALOGPS_SOLUBILITY>
5.42e+02 g/l __ 

$$$$
