
  Mrv0541 02231217022D          

 43 46  0  0  1  0            999 V2000
    1.5971   -3.0967    0.0000 C   0  0  0  0  0  0  0  0  0  0  0  0
    0.8826   -2.6842    0.0000 C   0  0  0  0  0  0  0  0  0  0  0  0
    0.1681   -3.0967    0.0000 O   0  0  0  0  0  0  0  0  0  0  0  0
    0.8826   -1.8592    0.0000 N   0  0  0  0  0  0  0  0  0  0  0  0
    1.5971   -1.4467    0.0000 C   0  0  1  0  0  0  0  0  0  0  0  0
    1.5971   -0.6217    0.0000 C   0  0  0  0  0  0  0  0  0  0  0  0
    0.8826   -0.2092    0.0000 C   0  0  0  0  0  0  0  0  0  0  0  0
    0.1681   -0.6217    0.0000 C   0  0  0  0  0  0  0  0  0  0  0  0
   -0.5463   -0.2092    0.0000 C   0  0  0  0  0  0  0  0  0  0  0  0
   -0.5463    0.6158    0.0000 C   0  0  0  0  0  0  0  0  0  0  0  0
    0.1681    1.0283    0.0000 C   0  0  0  0  0  0  0  0  0  0  0  0
    0.8826    0.6158    0.0000 C   0  0  0  0  0  0  0  0  0  0  0  0
   -1.2608    1.0283    0.0000 C   0  0  0  0  0  0  0  0  0  0  0  0
   -1.6733    0.3139    0.0000 F   0  0  0  0  0  0  0  0  0  0  0  0
   -0.8483    1.7428    0.0000 F   0  0  0  0  0  0  0  0  0  0  0  0
   -1.9753    1.4408    0.0000 P   0  0  0  0  0  0  0  0  0  0  0  0
   -2.6897    1.8533    0.0000 O   0  0  0  0  0  0  0  0  0  0  0  0
   -2.3878    0.7264    0.0000 O   0  0  0  0  0  0  0  0  0  0  0  0
   -1.5628    2.1553    0.0000 O   0  0  0  0  0  0  0  0  0  0  0  0
    2.3116   -1.8592    0.0000 C   0  0  0  0  0  0  0  0  0  0  0  0
    3.0260   -1.4467    0.0000 O   0  0  0  0  0  0  0  0  0  0  0  0
    2.3116   -2.6842    0.0000 N   0  0  0  0  0  0  0  0  0  0  0  0
    3.0260   -3.0967    0.0000 C   0  0  2  0  0  0  0  0  0  0  0  0
    3.7077   -2.6319    0.0000 C   0  0  0  0  0  0  0  0  0  0  0  0
    4.4960   -2.8751    0.0000 C   0  0  0  0  0  0  0  0  0  0  0  0
    4.7974   -3.6431    0.0000 C   0  0  0  0  0  0  0  0  0  0  0  0
    4.3849   -4.3575    0.0000 C   0  0  0  0  0  0  0  0  0  0  0  0
    3.5691   -4.4805    0.0000 N   0  0  0  0  0  0  0  0  0  0  0  0
    3.3260   -5.2688    0.0000 C   0  0  0  0  0  0  0  0  0  0  0  0
    3.8871   -5.8736    0.0000 C   0  0  0  0  0  0  0  0  0  0  0  0
    4.6914   -5.6900    0.0000 C   0  0  0  0  0  0  0  0  0  0  0  0
    5.2526   -6.2948    0.0000 C   0  0  0  0  0  0  0  0  0  0  0  0
    5.0094   -7.0831    0.0000 C   0  0  0  0  0  0  0  0  0  0  0  0
    4.2051   -7.2667    0.0000 C   0  0  0  0  0  0  0  0  0  0  0  0
    3.6439   -6.6620    0.0000 C   0  0  0  0  0  0  0  0  0  0  0  0
    5.5705   -7.6879    0.0000 C   0  0  0  0  0  0  0  0  0  0  0  0
    6.3749   -7.5043    0.0000 C   0  0  0  0  0  0  0  0  0  0  0  0
    6.9360   -8.1091    0.0000 C   0  0  0  0  0  0  0  0  0  0  0  0
    6.6928   -8.8974    0.0000 C   0  0  0  0  0  0  0  0  0  0  0  0
    5.8885   -9.0810    0.0000 C   0  0  0  0  0  0  0  0  0  0  0  0
    5.3274   -8.4763    0.0000 C   0  0  0  0  0  0  0  0  0  0  0  0
    2.9644   -3.9193    0.0000 C   0  0  0  0  0  0  0  0  0  0  0  0
    2.1964   -4.2208    0.0000 O   0  0  0  0  0  0  0  0  0  0  0  0
  1  2  1  0  0  0  0
  2  3  2  0  0  0  0
  2  4  1  0  0  0  0
  5  4  1  1  0  0  0
  5  6  1  0  0  0  0
  6  7  1  0  0  0  0
  7  8  2  0  0  0  0
  8  9  1  0  0  0  0
  9 10  2  0  0  0  0
 10 11  1  0  0  0  0
 11 12  2  0  0  0  0
  7 12  1  0  0  0  0
 10 13  1  0  0  0  0
 13 14  1  0  0  0  0
 13 15  1  0  0  0  0
 13 16  1  0  0  0  0
 16 17  1  0  0  0  0
 16 18  1  0  0  0  0
 16 19  2  0  0  0  0
  5 20  1  0  0  0  0
 20 21  2  0  0  0  0
 20 22  1  0  0  0  0
 23 22  1  6  0  0  0
 23 24  1  0  0  0  0
 24 25  1  0  0  0  0
 25 26  1  0  0  0  0
 26 27  1  0  0  0  0
 27 28  1  0  0  0  0
 28 29  1  0  0  0  0
 29 30  1  0  0  0  0
 30 31  2  0  0  0  0
 31 32  1  0  0  0  0
 32 33  2  0  0  0  0
 33 34  1  0  0  0  0
 34 35  2  0  0  0  0
 30 35  1  0  0  0  0
 33 36  1  0  0  0  0
 36 37  2  0  0  0  0
 37 38  1  0  0  0  0
 38 39  2  0  0  0  0
 39 40  1  0  0  0  0
 40 41  2  0  0  0  0
 36 41  1  0  0  0  0
 28 42  1  0  0  0  0
 23 42  1  0  0  0  0
 42 43  2  0  0  0  0
M  END
> <DRUGBANK_ID>
DB03591

> <DRUG_GROUPS>
experimental

> <GENERIC_NAME>
RU82209

> <CHEMICAL_FORMULA>
C31H34F2N3O6P

> <MOLECULAR_WEIGHT>
613.5887

> <EXACT_MASS>
613.215328757

> <IUPAC_NAME>
({4-[(2S)-2-acetamido-2-{[(3R)-2-oxo-1-[(4-phenylphenyl)methyl]azepan-3-yl]carbamoyl}ethyl]phenyl}difluoromethyl)phosphonic acid

> <IUPAC_TRADITIONAL_NAME>
{4-[(2S)-2-acetamido-2-{[(3R)-2-oxo-1-[(4-phenylphenyl)methyl]azepan-3-yl]carbamoyl}ethyl]phenyl}difluoromethylphosphonic acid

> <INCHI_IDENTIFIER>
InChI=1S/C31H34F2N3O6P/c1-21(37)34-28(19-22-12-16-26(17-13-22)31(32,33)43(40,41)42)29(38)35-27-9-5-6-18-36(30(27)39)20-23-10-14-25(15-11-23)24-7-3-2-4-8-24/h2-4,7-8,10-17,27-28H,5-6,9,18-20H2,1H3,(H,34,37)(H,35,38)(H2,40,41,42)/t27-,28+/m1/s1

> <INCHI_KEY>
InChIKey=LVZDQVATAQEMCX-IZLXSDGUSA-N

> <SMILES>
CC(=O)N[C@@H](CC1=CC=C(C=C1)C(F)(F)P(O)(O)=O)C(=O)N[C@@H]1CCCCN(CC2=CC=C(C=C2)C2=CC=CC=C2)C1=O

> <JCHEM_ACCEPTOR_COUNT>
6

> <JCHEM_DONOR_COUNT>
4

> <JCHEM_ACIDIC_PKA>
0.5

> <JCHEM_BASIC_PKA>
-1.4

> <JCHEM_PHYSIOLOGICAL_CHARGE>
-1

> <ALOGPS_LOGP>
2.89

> <JCHEM_LOGP>
3.28

> <ALOGPS_LOGS>
-6.3

> <JCHEM_POLARIZABILITY>
61.22

> <JCHEM_POLAR_SURFACE_AREA>
136.04

> <JCHEM_REFRACTIVITY>
157.34

> <JCHEM_ROTATABLE_BOND_COUNT>
10

> <ALOGPS_SOLUBILITY>
2.92e-04 g/l __ 

$$$$
