
  Mrv0541 02231216412D          

  9  9  0  0  1  0            999 V2000
    1.1296   -1.5764    0.0000 O   0  0  0  0  0  0  0  0  0  0  0  0
    1.4652   -0.8227    0.0000 C   0  0  0  0  0  0  0  0  0  0  0  0
    2.2857   -0.7365    0.0000 O   0  0  0  0  0  0  0  0  0  0  0  0
    0.9803   -0.1553    0.0000 C   0  0  1  0  0  0  0  0  0  0  0  0
    0.1553   -0.1553    0.0000 C   0  0  0  0  0  0  0  0  0  0  0  0
   -0.0997    0.6294    0.0000 C   0  0  0  0  0  0  0  0  0  0  0  0
    0.5678    1.1143    0.0000 C   0  0  0  0  0  0  0  0  0  0  0  0
    0.5678    1.9393    0.0000 O   0  0  0  0  0  0  0  0  0  0  0  0
    1.2352    0.6294    0.0000 N   0  0  0  0  0  0  0  0  0  0  0  0
  1  2  1  0  0  0  0
  2  3  2  0  0  0  0
  4  2  1  1  0  0  0
  4  5  1  0  0  0  0
  5  6  1  0  0  0  0
  6  7  1  0  0  0  0
  7  8  2  0  0  0  0
  7  9  1  0  0  0  0
  4  9  1  0  0  0  0
M  END
> <DRUGBANK_ID>
DB03088

> <DRUG_GROUPS>
experimental

> <GENERIC_NAME>
Pyroglutamic Acid

> <CHEMICAL_FORMULA>
C5H7NO3

> <MOLECULAR_WEIGHT>
129.114

> <EXACT_MASS>
129.042593095

> <IUPAC_NAME>
(2R)-5-oxopyrrolidine-2-carboxylic acid

> <IUPAC_TRADITIONAL_NAME>
pyroglutamic acid

> <INCHI_IDENTIFIER>
InChI=1S/C5H7NO3/c7-4-2-1-3(6-4)5(8)9/h3H,1-2H2,(H,6,7)(H,8,9)/t3-/m1/s1

> <INCHI_KEY>
InChIKey=ODHCTXKNWHHXJC-GSVOUGTGSA-N

> <SMILES>
OC(=O)[C@H]1CCC(=O)N1

> <JCHEM_ACCEPTOR_COUNT>
3

> <JCHEM_DONOR_COUNT>
2

> <JCHEM_ACIDIC_PKA>
3.61

> <JCHEM_BASIC_PKA>
-1.8

> <JCHEM_PHYSIOLOGICAL_CHARGE>
-1

> <ALOGPS_LOGP>
-1

> <JCHEM_LOGP>
-0.89

> <ALOGPS_LOGS>
0.07

> <JCHEM_POLARIZABILITY>
11.42

> <JCHEM_POLAR_SURFACE_AREA>
66.4

> <JCHEM_REFRACTIVITY>
28.09

> <JCHEM_ROTATABLE_BOND_COUNT>
1

> <ALOGPS_SOLUBILITY>
1.51e+02 g/l __ 

$$$$
