
  Mrv0541 02231217122D          

 11 10  0  0  1  0            999 V2000
    4.6184    2.6664    0.0000 N   0  0  0  0  0  0  0  0  0  0  0  0
    4.6184    1.8414    0.0000 C   0  0  1  0  0  0  0  0  0  0  0  0
    3.9039    1.4289    0.0000 C   0  0  0  0  0  0  0  0  0  0  0  0
    3.1895    1.8414    0.0000 C   0  0  0  0  0  0  0  0  0  0  0  0
    2.4750    1.4289    0.0000 S   0  0  0  0  0  0  0  0  0  0  0  0
    1.7605    1.8414    0.0000 C   0  0  0  0  0  0  0  0  0  0  0  0
    1.0461    1.4289    0.0000 F   0  0  0  0  0  0  0  0  0  0  0  0
    1.7605    2.6664    0.0000 F   0  0  0  0  0  0  0  0  0  0  0  0
    5.3329    1.4289    0.0000 C   0  0  0  0  0  0  0  0  0  0  0  0
    6.0474    1.8414    0.0000 O   0  0  0  0  0  0  0  0  0  0  0  0
    5.3329    0.6039    0.0000 O   0  0  0  0  0  0  0  0  0  0  0  0
  2  1  1  6  0  0  0
  2  3  1  0  0  0  0
  3  4  1  0  0  0  0
  4  5  1  0  0  0  0
  5  6  1  0  0  0  0
  6  7  1  0  0  0  0
  6  8  1  0  0  0  0
  2  9  1  0  0  0  0
  9 10  1  0  0  0  0
  9 11  2  0  0  0  0
M  END
> <DRUGBANK_ID>
DB03816

> <DRUG_GROUPS>
experimental

> <GENERIC_NAME>
Difluoromethionine

> <CHEMICAL_FORMULA>
C5H9F2NO2S

> <MOLECULAR_WEIGHT>
185.192

> <EXACT_MASS>
185.032205637

> <IUPAC_NAME>
(2S)-2-amino-4-[(difluoromethyl)sulfanyl]butanoic acid

> <IUPAC_TRADITIONAL_NAME>
difluoromethionine

> <INCHI_IDENTIFIER>
InChI=1S/C5H9F2NO2S/c6-5(7)11-2-1-3(8)4(9)10/h3,5H,1-2,8H2,(H,9,10)/t3-/m0/s1

> <INCHI_KEY>
InChIKey=YHBNXKYHZMAFED-VKHMYHEASA-N

> <SMILES>
N[C@@H](CCSC(F)F)C(O)=O

> <JCHEM_ACCEPTOR_COUNT>
3

> <JCHEM_DONOR_COUNT>
2

> <JCHEM_ACIDIC_PKA>
1.95

> <JCHEM_BASIC_PKA>
9.5

> <JCHEM_PHYSIOLOGICAL_CHARGE>
0

> <ALOGPS_LOGP>
-2

> <JCHEM_LOGP>
-1.1

> <ALOGPS_LOGS>
-0.93

> <JCHEM_POLARIZABILITY>
15.77

> <JCHEM_POLAR_SURFACE_AREA>
63.32

> <JCHEM_REFRACTIVITY>
37.76

> <JCHEM_ROTATABLE_BOND_COUNT>
5

> <ALOGPS_SOLUBILITY>
2.16e+01 g/l __ 

$$$$
