
  Mrv0541 02231216392D          

 27 26  0  0  1  0            999 V2000
    7.2336   -5.0013    0.0000 C   0  0  0  0  0  0  0  0  0  0  0  0
    7.9480   -4.5888    0.0000 C   0  0  0  0  0  0  0  0  0  0  0  0
    7.9480   -3.7638    0.0000 O   0  0  0  0  0  0  0  0  0  0  0  0
    8.6625   -5.0013    0.0000 O   0  0  0  0  0  0  0  0  0  0  0  0
    9.3770   -4.5888    0.0000 C   0  0  0  0  0  0  0  0  0  0  0  0
   10.0914   -5.0013    0.0000 C   0  0  0  0  0  0  0  0  0  0  0  0
   10.8059   -4.5888    0.0000 N   0  0  0  0  0  0  0  0  0  0  0  0
   11.5204   -5.0013    0.0000 C   0  0  0  0  0  0  0  0  0  0  0  0
   11.5204   -5.8263    0.0000 O   0  0  0  0  0  0  0  0  0  0  0  0
   12.2349   -4.5888    0.0000 C   0  0  0  0  0  0  0  0  0  0  0  0
   12.9493   -5.0013    0.0000 C   0  0  0  0  0  0  0  0  0  0  0  0
   13.6638   -4.5888    0.0000 N   0  0  0  0  0  0  0  0  0  0  0  0
   14.3783   -5.0013    0.0000 C   0  0  0  0  0  0  0  0  0  0  0  0
   14.3783   -5.8263    0.0000 O   0  0  0  0  0  0  0  0  0  0  0  0
   15.0927   -4.5888    0.0000 C   0  0  2  0  0  0  0  0  0  0  0  0
   15.0927   -3.7638    0.0000 O   0  0  0  0  0  0  0  0  0  0  0  0
   15.8072   -5.0013    0.0000 C   0  0  0  0  0  0  0  0  0  0  0  0
   15.3947   -5.7158    0.0000 C   0  0  0  0  0  0  0  0  0  0  0  0
   16.2197   -4.2868    0.0000 C   0  0  0  0  0  0  0  0  0  0  0  0
   16.5217   -5.4138    0.0000 C   0  0  0  0  0  0  0  0  0  0  0  0
   17.2362   -5.0013    0.0000 O   0  0  0  0  0  0  0  0  0  0  0  0
   17.9506   -5.4138    0.0000 C   0  0  0  0  0  0  0  0  0  0  0  0
   17.9506   -6.2388    0.0000 O   0  0  0  0  0  0  0  0  0  0  0  0
   18.6651   -5.0013    0.0000 C   0  0  0  0  0  0  0  0  0  0  0  0
   19.3796   -4.5888    0.0000 C   0  0  0  0  0  0  0  0  0  0  0  0
   19.0776   -5.7158    0.0000 C   0  0  0  0  0  0  0  0  0  0  0  0
   18.2526   -4.2868    0.0000 C   0  0  0  0  0  0  0  0  0  0  0  0
  1  2  1  0  0  0  0
  2  3  2  0  0  0  0
  2  4  1  0  0  0  0
  4  5  1  0  0  0  0
  5  6  1  0  0  0  0
  6  7  1  0  0  0  0
  7  8  1  0  0  0  0
  8  9  2  0  0  0  0
  8 10  1  0  0  0  0
 10 11  1  0  0  0  0
 11 12  1  0  0  0  0
 12 13  1  0  0  0  0
 13 14  2  0  0  0  0
 13 15  1  0  0  0  0
 15 16  1  6  0  0  0
 15 17  1  0  0  0  0
 17 18  1  0  0  0  0
 17 19  1  0  0  0  0
 17 20  1  0  0  0  0
 20 21  1  0  0  0  0
 21 22  1  0  0  0  0
 22 23  2  0  0  0  0
 22 24  1  0  0  0  0
 24 25  1  0  0  0  0
 24 26  1  0  0  0  0
 24 27  1  0  0  0  0
M  END
> <DRUGBANK_ID>
DB03045

> <DRUG_GROUPS>
experimental

> <GENERIC_NAME>
Pantothenyl-Aminoethanol-Acetate Pivalic Acid

> <CHEMICAL_FORMULA>
C18H32N2O7

> <MOLECULAR_WEIGHT>
388.4559

> <EXACT_MASS>
388.220951388

> <IUPAC_NAME>
(3R)-3-[(2-{[2-(acetyloxy)ethyl]carbamoyl}ethyl)carbamoyl]-3-hydroxy-2,2-dimethylpropyl 2,2-dimethylpropanoate

> <IUPAC_TRADITIONAL_NAME>
(3R)-3-[(2-{[2-(acetyloxy)ethyl]carbamoyl}ethyl)carbamoyl]-3-hydroxy-2,2-dimethylpropyl 2,2-dimethylpropanoate

> <INCHI_IDENTIFIER>
InChI=1S/C18H32N2O7/c1-12(21)26-10-9-19-13(22)7-8-20-15(24)14(23)18(5,6)11-27-16(25)17(2,3)4/h14,23H,7-11H2,1-6H3,(H,19,22)(H,20,24)/t14-/m0/s1

> <INCHI_KEY>
InChIKey=MILJVOHYMMUVQM-AWEZNQCLSA-N

> <SMILES>
CC(=O)OCCNC(=O)CCNC(=O)[C@H](O)C(C)(C)COC(=O)C(C)(C)C

> <JCHEM_ACCEPTOR_COUNT>
5

> <JCHEM_DONOR_COUNT>
3

> <JCHEM_ACIDIC_PKA>
12.69

> <JCHEM_BASIC_PKA>
-1.5

> <JCHEM_PHYSIOLOGICAL_CHARGE>
0

> <ALOGPS_LOGP>
0.55

> <JCHEM_LOGP>
0.053

> <ALOGPS_LOGS>
-2.8

> <JCHEM_POLARIZABILITY>
41.2

> <JCHEM_POLAR_SURFACE_AREA>
131.03

> <JCHEM_REFRACTIVITY>
96.53

> <JCHEM_ROTATABLE_BOND_COUNT>
13

> <ALOGPS_SOLUBILITY>
6.24e-01 g/l __ 

$$$$
