
  Mrv0541 02231216582D          

 13 12  0  0  1  0            999 V2000
    2.2836    2.1434    0.0000 N   0  0  0  0  0  0  0  0  0  0  0  0
    2.9980    1.7309    0.0000 C   0  0  0  0  0  0  0  0  0  0  0  0
    3.7125    2.1434    0.0000 C   0  0  0  0  0  0  0  0  0  0  0  0
    4.4270    1.7309    0.0000 O   0  0  0  0  0  0  0  0  0  0  0  0
    5.1414    2.1434    0.0000 P   0  0  1  0  0  0  0  0  0  0  0  0
    5.5539    1.4289    0.0000 O   0  0  0  0  0  0  0  0  0  0  0  0
    4.7289    2.8579    0.0000 O   0  0  0  0  0  0  0  0  0  0  0  0
    5.8559    2.5559    0.0000 O   0  0  0  0  0  0  0  0  0  0  0  0
    6.5704    2.1434    0.0000 C   0  0  0  0  0  0  0  0  0  0  0  0
    7.2849    2.5559    0.0000 C   0  0  1  0  0  0  0  0  0  0  0  0
    7.2849    3.3809    0.0000 O   0  0  0  0  0  0  0  0  0  0  0  0
    7.9993    2.1434    0.0000 C   0  0  0  0  0  0  0  0  0  0  0  0
    8.7138    2.5559    0.0000 O   0  0  0  0  0  0  0  0  0  0  0  0
  1  2  1  0  0  0  0
  2  3  1  0  0  0  0
  3  4  1  0  0  0  0
  5  4  1  1  0  0  0
  5  6  1  6  0  0  0
  5  7  2  0  0  0  0
  5  8  1  0  0  0  0
  8  9  1  0  0  0  0
  9 10  1  0  0  0  0
 10 11  1  1  0  0  0
 10 12  1  0  0  0  0
 12 13  1  0  0  0  0
M  END
> <DRUGBANK_ID>
DB03484

> <DRUG_GROUPS>
experimental

> <GENERIC_NAME>
L-Alpha-Glycerophosphorylethanolamine

> <CHEMICAL_FORMULA>
C5H14NO6P

> <MOLECULAR_WEIGHT>
215.1415

> <EXACT_MASS>
215.055873697

> <IUPAC_NAME>
(2-aminoethoxy)[(2S)-2,3-dihydroxypropoxy]phosphinic acid

> <IUPAC_TRADITIONAL_NAME>
2-aminoethoxy(2S)-2,3-dihydroxypropoxyphosphinic acid

> <INCHI_IDENTIFIER>
InChI=1S/C5H14NO6P/c6-1-2-11-13(9,10)12-4-5(8)3-7/h5,7-8H,1-4,6H2,(H,9,10)/t5-/m0/s1

> <INCHI_KEY>
InChIKey=JZNWSCPGTDBMEW-YFKPBYRVSA-N

> <SMILES>
NCCO[P@@](O)(=O)OC[C@@H](O)CO

> <JCHEM_ACCEPTOR_COUNT>
5

> <JCHEM_DONOR_COUNT>
4

> <JCHEM_ACIDIC_PKA>
1.87

> <JCHEM_BASIC_PKA>
10

> <JCHEM_PHYSIOLOGICAL_CHARGE>
0

> <ALOGPS_LOGP>
-2.3

> <JCHEM_LOGP>
-3.4

> <ALOGPS_LOGS>
-0.77

> <JCHEM_POLARIZABILITY>
18.88

> <JCHEM_POLAR_SURFACE_AREA>
122.24

> <JCHEM_REFRACTIVITY>
43.82

> <JCHEM_ROTATABLE_BOND_COUNT>
7

> <ALOGPS_SOLUBILITY>
3.65e+01 g/l __ 

$$$$
