
  Mrv0541 02231217052D          

 50 51  0  0  1  0            999 V2000
   11.7355  -11.9464    0.0000 C   0  0  0  0  0  0  0  0  0  0  0  0
   11.4654  -11.1668    0.0000 C   0  0  0  0  0  0  0  0  0  0  0  0
   12.0055  -10.5432    0.0000 C   0  0  0  0  0  0  0  0  0  0  0  0
   11.7355   -9.7637    0.0000 C   0  0  0  0  0  0  0  0  0  0  0  0
   12.2756   -9.1400    0.0000 C   0  0  1  0  0  0  0  0  0  0  0  0
   12.0055   -8.3605    0.0000 C   0  0  0  0  0  0  0  0  0  0  0  0
   11.1954   -8.2046    0.0000 N   0  0  0  0  0  0  0  0  0  0  0  0
   10.9253   -7.4250    0.0000 N   0  0  0  0  0  0  0  0  0  0  0  0
   10.1152   -7.2691    0.0000 C   0  0  0  0  0  0  0  0  0  0  0  0
    9.8452   -6.4895    0.0000 C   0  0  1  0  0  0  0  0  0  0  0  0
   10.3852   -5.8659    0.0000 C   0  0  0  0  0  0  0  0  0  0  0  0
   10.1152   -5.0863    0.0000 C   0  0  0  0  0  0  0  0  0  0  0  0
    9.3051   -4.9304    0.0000 C   0  0  0  0  0  0  0  0  0  0  0  0
    9.0350   -4.1509    0.0000 C   0  0  0  0  0  0  0  0  0  0  0  0
    9.0350   -6.3336    0.0000 C   0  0  0  0  0  0  0  0  0  0  0  0
    8.4949   -6.9573    0.0000 O   0  0  0  0  0  0  0  0  0  0  0  0
    8.7650   -5.5541    0.0000 N   0  0  0  0  0  0  0  0  0  0  0  0
    7.9548   -5.3982    0.0000 C   0  0  1  0  0  0  0  0  0  0  0  0
    7.4148   -6.0218    0.0000 C   0  0  0  0  0  0  0  0  0  0  0  0
    7.6848   -6.8014    0.0000 C   0  0  0  0  0  0  0  0  0  0  0  0
    7.1447   -7.4250    0.0000 C   0  0  0  0  0  0  0  0  0  0  0  0
    7.4148   -8.2046    0.0000 C   0  0  0  0  0  0  0  0  0  0  0  0
    6.8747   -8.8282    0.0000 N   0  0  0  0  0  0  0  0  0  0  0  0
    7.6848   -4.6186    0.0000 C   0  0  0  0  0  0  0  0  0  0  0  0
    8.2249   -3.9950    0.0000 O   0  0  0  0  0  0  0  0  0  0  0  0
    6.8747   -4.4627    0.0000 N   0  0  0  0  0  0  0  0  0  0  0  0
    6.6046   -3.6832    0.0000 C   0  0  0  0  0  0  0  0  0  0  0  0
    5.7945   -3.5272    0.0000 C   0  0  0  0  0  0  0  0  0  0  0  0
    5.5244   -2.7477    0.0000 C   0  0  0  0  0  0  0  0  0  0  0  0
    6.0645   -2.1240    0.0000 C   0  0  0  0  0  0  0  0  0  0  0  0
    6.8747   -2.2800    0.0000 C   0  0  0  0  0  0  0  0  0  0  0  0
    7.1447   -3.0595    0.0000 C   0  0  0  0  0  0  0  0  0  0  0  0
   13.0857   -9.2959    0.0000 C   0  0  0  0  0  0  0  0  0  0  0  0
   13.6258   -8.6723    0.0000 O   0  0  0  0  0  0  0  0  0  0  0  0
   13.3557  -10.0755    0.0000 N   0  0  0  0  0  0  0  0  0  0  0  0
   14.1659  -10.2314    0.0000 C   0  0  2  0  0  0  0  0  0  0  0  0
   14.7060   -9.6077    0.0000 C   0  0  0  0  0  0  0  0  0  0  0  0
   14.4359   -8.8282    0.0000 C   0  0  0  0  0  0  0  0  0  0  0  0
   14.9760   -8.2046    0.0000 C   0  0  0  0  0  0  0  0  0  0  0  0
   14.7060   -7.4250    0.0000 C   0  0  0  0  0  0  0  0  0  0  0  0
   15.2460   -6.8014    0.0000 N   0  0  0  0  0  0  0  0  0  0  0  0
   14.4359  -11.0109    0.0000 C   0  0  0  0  0  0  0  0  0  0  0  0
   13.8958  -11.6346    0.0000 O   0  0  0  0  0  0  0  0  0  0  0  0
   15.2460  -11.1668    0.0000 N   0  0  0  0  0  0  0  0  0  0  0  0
   15.5161  -11.9464    0.0000 C   0  0  0  0  0  0  0  0  0  0  0  0
   16.3262  -12.1023    0.0000 C   0  0  0  0  0  0  0  0  0  0  0  0
   16.5963  -12.8819    0.0000 C   0  0  0  0  0  0  0  0  0  0  0  0
   16.0562  -13.5055    0.0000 C   0  0  0  0  0  0  0  0  0  0  0  0
   15.2460  -13.3496    0.0000 C   0  0  0  0  0  0  0  0  0  0  0  0
   14.9760  -12.5700    0.0000 C   0  0  0  0  0  0  0  0  0  0  0  0
  1  2  1  0  0  0  0
  2  3  1  0  0  0  0
  3  4  1  0  0  0  0
  4  5  1  0  0  0  0
  5  6  1  0  0  0  0
  6  7  1  0  0  0  0
  7  8  1  0  0  0  0
  8  9  1  0  0  0  0
  9 10  1  0  0  0  0
 10 11  1  0  0  0  0
 11 12  1  0  0  0  0
 12 13  1  0  0  0  0
 13 14  1  0  0  0  0
 10 15  1  6  0  0  0
 15 16  2  0  0  0  0
 15 17  1  0  0  0  0
 18 17  1  1  0  0  0
 18 19  1  0  0  0  0
 19 20  1  0  0  0  0
 20 21  1  0  0  0  0
 21 22  1  0  0  0  0
 22 23  1  0  0  0  0
 18 24  1  0  0  0  0
 24 25  2  0  0  0  0
 24 26  1  0  0  0  0
 26 27  1  0  0  0  0
 27 28  2  0  0  0  0
 28 29  1  0  0  0  0
 29 30  2  0  0  0  0
 30 31  1  0  0  0  0
 31 32  2  0  0  0  0
 27 32  1  0  0  0  0
  5 33  1  1  0  0  0
 33 34  2  0  0  0  0
 33 35  1  0  0  0  0
 36 35  1  6  0  0  0
 36 37  1  0  0  0  0
 37 38  1  0  0  0  0
 38 39  1  0  0  0  0
 39 40  1  0  0  0  0
 40 41  1  0  0  0  0
 36 42  1  0  0  0  0
 42 43  2  0  0  0  0
 42 44  1  0  0  0  0
 44 45  1  0  0  0  0
 45 46  2  0  0  0  0
 46 47  1  0  0  0  0
 47 48  2  0  0  0  0
 48 49  1  0  0  0  0
 49 50  2  0  0  0  0
 45 50  1  0  0  0  0
M  END
> <DRUGBANK_ID>
DB03648

> <DRUG_GROUPS>
experimental

> <GENERIC_NAME>
2-{N'-[2-(5-Amino-1-Phenylcarbamoyl-Pentylcarbamoyl)-Hexyl]-Hydrazinomethyl}-Hexanoic Acid(5-Amino-1-Phenylcarbamoyl-Pentyl)-Amide

> <CHEMICAL_FORMULA>
C38H62N8O4

> <MOLECULAR_WEIGHT>
694.9501

> <EXACT_MASS>
694.489402512

> <IUPAC_NAME>
(2S)-6-amino-2-[(2R)-2-({2-[(2S)-2-{[(1R)-5-amino-1-(phenylcarbamoyl)pentyl]carbamoyl}-2-butylethyl]hydrazin-1-yl}methyl)hexanamido]-N-phenylhexanamide

> <IUPAC_TRADITIONAL_NAME>
(2S)-6-amino-2-[(2R)-2-({2-[(2S)-2-{[(1R)-5-amino-1-(phenylcarbamoyl)pentyl]carbamoyl}-2-butylethyl]hydrazin-1-yl}methyl)hexanamido]-N-phenylhexanamide

> <INCHI_IDENTIFIER>
InChI=1S/C38H62N8O4/c1-3-5-17-29(35(47)45-33(23-13-15-25-39)37(49)43-31-19-9-7-10-20-31)27-41-42-28-30(18-6-4-2)36(48)46-34(24-14-16-26-40)38(50)44-32-21-11-8-12-22-32/h7-12,19-22,29-30,33-34,41-42H,3-6,13-18,23-28,39-40H2,1-2H3,(H,43,49)(H,44,50)(H,45,47)(H,46,48)/t29-,30+,33+,34-

> <INCHI_KEY>
InChIKey=YFMXWONORHSZEM-JDYLGNGMSA-N

> <SMILES>
CCCC[C@@H](CNNC[C@@H](CCCC)C(=O)N[C@@H](CCCCN)C(=O)NC1=CC=CC=C1)C(=O)N[C@H](CCCCN)C(=O)NC1=CC=CC=C1

> <JCHEM_ACCEPTOR_COUNT>
8

> <JCHEM_DONOR_COUNT>
8

> <JCHEM_ACIDIC_PKA>
12.44

> <JCHEM_BASIC_PKA>
10.5

> <JCHEM_PHYSIOLOGICAL_CHARGE>
2

> <ALOGPS_LOGP>
2.29

> <JCHEM_LOGP>
4.13

> <ALOGPS_LOGS>
-5.2

> <JCHEM_POLARIZABILITY>
80.95

> <JCHEM_POLAR_SURFACE_AREA>
192.5

> <JCHEM_REFRACTIVITY>
223.32

> <JCHEM_ROTATABLE_BOND_COUNT>
27

> <ALOGPS_SOLUBILITY>
4.14e-03 g/l __ 

$$$$
