
  Mrv0541 02231217002D          

 22 23  0  0  1  0            999 V2000
    2.7512   -0.0616    0.0000 N   0  0  0  0  0  0  0  0  0  0  0  0
    2.0367   -0.4741    0.0000 C   0  0  2  0  0  0  0  0  0  0  0  0
    1.3222   -0.0616    0.0000 C   0  0  0  0  0  0  0  0  0  0  0  0
    1.3222    0.7634    0.0000 O   0  0  0  0  0  0  0  0  0  0  0  0
    2.0367   -1.2991    0.0000 C   0  0  1  0  0  0  0  0  0  0  0  0
    2.7041   -1.7840    0.0000 N   0  0  0  0  0  0  0  0  0  0  0  0
    2.4492   -2.5687    0.0000 C   0  0  1  0  0  0  0  0  0  0  0  0
    2.9341   -3.2361    0.0000 C   0  0  0  0  0  0  0  0  0  0  0  0
    2.5986   -3.9898    0.0000 C   0  0  0  0  0  0  0  0  0  0  0  0
    3.0835   -4.6572    0.0000 C   0  0  0  0  0  0  0  0  0  0  0  0
    2.7479   -5.4109    0.0000 C   0  0  0  0  0  0  0  0  0  0  0  0
    1.9275   -5.4971    0.0000 C   0  0  0  0  0  0  0  0  0  0  0  0
    1.5919   -6.2508    0.0000 O   0  0  0  0  0  0  0  0  0  0  0  0
    1.4425   -4.8297    0.0000 C   0  0  0  0  0  0  0  0  0  0  0  0
    1.7781   -4.0760    0.0000 C   0  0  0  0  0  0  0  0  0  0  0  0
    1.6242   -2.5687    0.0000 C   0  0  0  0  0  0  0  0  0  0  0  0
    1.1393   -3.2361    0.0000 O   0  0  0  0  0  0  0  0  0  0  0  0
    1.3693   -1.7840    0.0000 N   0  0  0  0  0  0  0  0  0  0  0  0
    0.5846   -1.5291    0.0000 C   0  0  0  0  0  0  0  0  0  0  0  0
   -0.0284   -2.0811    0.0000 C   0  0  0  0  0  0  0  0  0  0  0  0
    0.1431   -2.8881    0.0000 O   0  0  0  0  0  0  0  0  0  0  0  0
   -0.8131   -1.8262    0.0000 O   0  0  0  0  0  0  0  0  0  0  0  0
  2  1  1  1  0  0  0
  2  3  1  0  0  0  0
  3  4  1  0  0  0  0
  5  2  1  1  0  0  0
  5  6  1  0  0  0  0
  6  7  1  0  0  0  0
  7  8  1  1  0  0  0
  8  9  1  0  0  0  0
  9 10  2  0  0  0  0
 10 11  1  0  0  0  0
 11 12  2  0  0  0  0
 12 13  1  0  0  0  0
 12 14  1  0  0  0  0
 14 15  2  0  0  0  0
  9 15  1  0  0  0  0
  7 16  1  0  0  0  0
 16 17  2  0  0  0  0
 16 18  1  0  0  0  0
  5 18  1  0  0  0  0
 18 19  1  0  0  0  0
 19 20  1  0  0  0  0
 20 21  1  0  0  0  0
 20 22  2  0  0  0  0
M  END
> <DRUGBANK_ID>
DB03537

> <DRUG_GROUPS>
experimental

> <GENERIC_NAME>
[4-(4-Hydroxy-Benzyl)-2-(2-Hydroxy-1-Methyl-Ethyl)-5-Oxo-Imidazolidin-1-Yl]-Acetic Acid

> <CHEMICAL_FORMULA>
C14H19N3O5

> <MOLECULAR_WEIGHT>
309.3178

> <EXACT_MASS>
309.132470733

> <IUPAC_NAME>
2-[(2S,4S)-2-[(1S)-1-amino-2-hydroxyethyl]-4-[(4-hydroxyphenyl)methyl]-5-oxoimidazolidin-1-yl]acetic acid

> <IUPAC_TRADITIONAL_NAME>
[(2S,4S)-2-[(1S)-1-amino-2-hydroxyethyl]-4-[(4-hydroxyphenyl)methyl]-5-oxoimidazolidin-1-yl]acetic acid

> <INCHI_IDENTIFIER>
InChI=1S/C14H19N3O5/c15-10(7-18)13-16-11(14(22)17(13)6-12(20)21)5-8-1-3-9(19)4-2-8/h1-4,10-11,13,16,18-19H,5-7,15H2,(H,20,21)/t10-,11+,13+/m1/s1

> <INCHI_KEY>
InChIKey=IOOVFQXJDCDSOE-MDZLAQPJSA-N

> <SMILES>
N[C@H](CO)[C@H]1N[C@@H](CC2=CC=C(O)C=C2)C(=O)N1CC(O)=O

> <JCHEM_ACCEPTOR_COUNT>
7

> <JCHEM_DONOR_COUNT>
5

> <JCHEM_ACIDIC_PKA>
3.47

> <JCHEM_BASIC_PKA>
8.01

> <JCHEM_PHYSIOLOGICAL_CHARGE>
0

> <ALOGPS_LOGP>
-2.4

> <JCHEM_LOGP>
-3.2

> <ALOGPS_LOGS>
-1.7

> <JCHEM_POLARIZABILITY>
30.65

> <JCHEM_POLAR_SURFACE_AREA>
136.12

> <JCHEM_REFRACTIVITY>
76.25

> <JCHEM_ROTATABLE_BOND_COUNT>
6

> <ALOGPS_SOLUBILITY>
5.93e+00 g/l __ 

$$$$
