
  Mrv0541 02231217152D          

 27 28  0  0  1  0            999 V2000
   -3.5724    2.8875    0.0000 O   0  0  0  0  0  0  0  0  0  0  0  0
   -2.8579    2.4750    0.0000 C   0  0  0  0  0  0  0  0  0  0  0  0
   -2.1434    2.8875    0.0000 C   0  0  1  0  0  0  0  0  0  0  0  0
   -2.1434    3.7125    0.0000 O   0  0  0  0  0  0  0  0  0  0  0  0
   -1.4289    2.4750    0.0000 C   0  0  2  0  0  0  0  0  0  0  0  0
   -1.4289    1.6500    0.0000 O   0  0  0  0  0  0  0  0  0  0  0  0
   -0.7145    2.8875    0.0000 C   0  0  1  0  0  0  0  0  0  0  0  0
   -0.7145    3.7125    0.0000 O   0  0  0  0  0  0  0  0  0  0  0  0
    0.0000    2.4750    0.0000 C   0  0  0  0  0  0  0  0  0  0  0  0
    0.7145    2.8875    0.0000 N   0  0  0  0  0  0  0  0  0  0  0  0
    1.4289    2.4750    0.0000 C   0  0  0  0  0  0  0  0  0  0  0  0
    1.4289    1.6500    0.0000 O   0  0  0  0  0  0  0  0  0  0  0  0
    2.1434    2.8875    0.0000 C   0  0  0  0  0  0  0  0  0  0  0  0
    2.8579    2.4750    0.0000 C   0  0  0  0  0  0  0  0  0  0  0  0
    3.5724    2.8875    0.0000 C   0  0  0  0  0  0  0  0  0  0  0  0
    4.2868    2.4750    0.0000 C   0  0  0  0  0  0  0  0  0  0  0  0
    5.0013    2.8875    0.0000 O   0  0  0  0  0  0  0  0  0  0  0  0
    4.2868    1.6500    0.0000 O   0  0  0  0  0  0  0  0  0  0  0  0
    2.1434    3.7125    0.0000 N   0  0  0  0  0  0  0  0  0  0  0  0
    1.4289    4.1250    0.0000 C   0  0  0  0  0  0  0  0  0  0  0  0
    0.7145    3.7125    0.0000 C   0  0  0  0  0  0  0  0  0  0  0  0
    0.0000    4.1250    0.0000 N   0  0  0  0  0  0  0  0  0  0  0  0
    0.0000    4.9500    0.0000 C   0  0  0  0  0  0  0  0  0  0  0  0
   -0.7145    5.3625    0.0000 O   0  0  0  0  0  0  0  0  0  0  0  0
    0.7145    5.3625    0.0000 N   0  0  0  0  0  0  0  0  0  0  0  0
    1.4289    4.9500    0.0000 C   0  0  0  0  0  0  0  0  0  0  0  0
    2.1434    5.3625    0.0000 O   0  0  0  0  0  0  0  0  0  0  0  0
  1  2  1  0  0  0  0
  2  3  1  0  0  0  0
  3  4  1  1  0  0  0
  3  5  1  0  0  0  0
  5  6  1  1  0  0  0
  5  7  1  0  0  0  0
  7  8  1  1  0  0  0
  7  9  1  0  0  0  0
  9 10  1  0  0  0  0
 10 11  1  0  0  0  0
 11 12  2  0  0  0  0
 11 13  1  0  0  0  0
 13 14  1  0  0  0  0
 14 15  1  0  0  0  0
 15 16  1  0  0  0  0
 16 17  1  0  0  0  0
 16 18  2  0  0  0  0
 13 19  2  0  0  0  0
 19 20  1  0  0  0  0
 20 21  2  0  0  0  0
 10 21  1  0  0  0  0
 21 22  1  0  0  0  0
 22 23  1  0  0  0  0
 23 24  2  0  0  0  0
 23 25  1  0  0  0  0
 25 26  1  0  0  0  0
 20 26  1  0  0  0  0
 26 27  2  0  0  0  0
M  END
> <DRUGBANK_ID>
DB03883

> <DRUG_GROUPS>
experimental

> <GENERIC_NAME>
Carboxyethyllumazine

> <CHEMICAL_FORMULA>
C14H18N4O9

> <MOLECULAR_WEIGHT>
386.3141

> <EXACT_MASS>
386.107378194

> <IUPAC_NAME>
3-{2,4,7-trioxo-8-[(2S,3R,4R)-2,3,4,5-tetrahydroxypentyl]-1,2,3,4,7,8-hexahydropteridin-6-yl}propanoic acid

> <IUPAC_TRADITIONAL_NAME>
carboxyethyllumazine

> <INCHI_IDENTIFIER>
InChI=1S/C14H18N4O9/c19-4-7(21)10(24)6(20)3-18-11-9(12(25)17-14(27)16-11)15-5(13(18)26)1-2-8(22)23/h6-7,10,19-21,24H,1-4H2,(H,22,23)(H2,16,17,25,27)/t6-,7+,10+/m0/s1

> <INCHI_KEY>
InChIKey=PTYCEIBBGGLADD-NYNCVSEMSA-N

> <SMILES>
OC[C@@H](O)[C@H](O)[C@@H](O)CN1C(=O)C(CCC(O)=O)=NC2=C1NC(=O)NC2=O

> <JCHEM_ACCEPTOR_COUNT>
10

> <JCHEM_DONOR_COUNT>
7

> <JCHEM_ACIDIC_PKA>
3.73

> <JCHEM_BASIC_PKA>
-3

> <JCHEM_PHYSIOLOGICAL_CHARGE>
-1

> <ALOGPS_LOGP>
-2.2

> <JCHEM_LOGP>
-4

> <ALOGPS_LOGS>
-2.1

> <JCHEM_POLARIZABILITY>
35.54

> <JCHEM_POLAR_SURFACE_AREA>
209.09

> <JCHEM_REFRACTIVITY>
94.32

> <JCHEM_ROTATABLE_BOND_COUNT>
8

> <ALOGPS_SOLUBILITY>
3.35e+00 g/l __ 

$$$$
