
  Mrv0541 02231217132D          

 25 27  0  0  0  0            999 V2000
    2.2380   -2.2703    0.0000 C   0  0  0  0  0  0  0  0  0  0  0  0
    2.9525   -1.8578    0.0000 O   0  0  0  0  0  0  0  0  0  0  0  0
    2.9525   -1.0328    0.0000 C   0  0  0  0  0  0  0  0  0  0  0  0
    2.2380   -0.6203    0.0000 C   0  0  0  0  0  0  0  0  0  0  0  0
    2.2380    0.2047    0.0000 C   0  0  0  0  0  0  0  0  0  0  0  0
    2.9525    0.6172    0.0000 C   0  0  0  0  0  0  0  0  0  0  0  0
    3.6669    0.2047    0.0000 C   0  0  0  0  0  0  0  0  0  0  0  0
    3.6669   -0.6203    0.0000 C   0  0  0  0  0  0  0  0  0  0  0  0
    4.3814   -1.0328    0.0000 O   0  0  0  0  0  0  0  0  0  0  0  0
    4.3814   -1.8578    0.0000 C   0  0  0  0  0  0  0  0  0  0  0  0
    5.0488   -2.3427    0.0000 C   0  0  0  0  0  0  0  0  0  0  0  0
    4.7939   -3.1273    0.0000 C   0  0  0  0  0  0  0  0  0  0  0  0
    3.9689   -3.1273    0.0000 C   0  0  0  0  0  0  0  0  0  0  0  0
    3.7140   -2.3427    0.0000 C   0  0  0  0  0  0  0  0  0  0  0  0
    2.9525    1.4422    0.0000 C   0  0  2  0  0  0  0  0  0  0  0  0
    2.6703    2.2175    0.0000 C   0  0  0  0  0  0  0  0  0  0  0  0
    3.2006    2.8495    0.0000 C   0  0  0  0  0  0  0  0  0  0  0  0
    4.0131    2.7062    0.0000 C   0  0  1  0  0  0  0  0  0  0  0  0
    4.2952    1.9310    0.0000 C   0  0  0  0  0  0  0  0  0  0  0  0
    3.7649    1.2990    0.0000 C   0  0  0  0  0  0  0  0  0  0  0  0
    4.5434    3.3382    0.0000 C   0  0  0  0  0  0  0  0  0  0  0  0
    4.2612    4.1135    0.0000 O   0  0  0  0  0  0  0  0  0  0  0  0
    5.3558    3.1949    0.0000 O   0  0  0  0  0  0  0  0  0  0  0  0
    2.1400    1.2990    0.0000 C   0  0  0  0  0  0  0  0  0  0  0  0
    1.3275    1.1557    0.0000 N   0  0  0  0  0  0  0  0  0  0  0  0
  1  2  1  0  0  0  0
  2  3  1  0  0  0  0
  3  4  2  0  0  0  0
  4  5  1  0  0  0  0
  5  6  2  0  0  0  0
  6  7  1  0  0  0  0
  7  8  2  0  0  0  0
  3  8  1  0  0  0  0
  8  9  1  0  0  0  0
  9 10  1  0  0  0  0
 10 11  1  0  0  0  0
 11 12  1  0  0  0  0
 12 13  1  0  0  0  0
 13 14  1  0  0  0  0
 10 14  1  0  0  0  0
 15  6  1  6  0  0  0
 15 16  1  0  0  0  0
 16 17  1  0  0  0  0
 17 18  1  0  0  0  0
 18 19  1  0  0  0  0
 19 20  1  0  0  0  0
 15 20  1  0  0  0  0
 18 21  1  6  0  0  0
 21 22  1  0  0  0  0
 21 23  2  0  0  0  0
 15 24  1  1  0  0  0
 24 25  3  0  0  0  0
M  END
> <DRUGBANK_ID>
DB03849

> <DRUG_GROUPS>
experimental

> <GENERIC_NAME>
Cis-4-Cyano-4-[3-(Cyclopentyloxy)-4-Methoxyphenyl]Cyclohexanecarboxylic Acid

> <CHEMICAL_FORMULA>
C20H25NO4

> <MOLECULAR_WEIGHT>
343.4168

> <EXACT_MASS>
343.178358293

> <IUPAC_NAME>
(1r,4r)-4-cyano-4-[3-(cyclopentyloxy)-4-methoxyphenyl]cyclohexane-1-carboxylic acid

> <IUPAC_TRADITIONAL_NAME>
(1r,4r)-4-cyano-4-[3-(cyclopentyloxy)-4-methoxyphenyl]cyclohexane-1-carboxylic acid

> <INCHI_IDENTIFIER>
InChI=1S/C20H25NO4/c1-24-17-7-6-15(12-18(17)25-16-4-2-3-5-16)20(13-21)10-8-14(9-11-20)19(22)23/h6-7,12,14,16H,2-5,8-11H2,1H3,(H,22,23)/t14-,20+

> <INCHI_KEY>
InChIKey=CFBUZOUXXHZCFB-LDTOLXSISA-N

> <SMILES>
COC1=CC=C(C=C1OC1CCCC1)[C@@]1(CC[C@@H](CC1)C(O)=O)C#N

> <JCHEM_ACCEPTOR_COUNT>
5

> <JCHEM_DONOR_COUNT>
1

> <JCHEM_ACIDIC_PKA>
2.33

> <JCHEM_BASIC_PKA>
-4.6

> <JCHEM_PHYSIOLOGICAL_CHARGE>
-1

> <ALOGPS_LOGP>
3.91

> <JCHEM_LOGP>
3.9

> <ALOGPS_LOGS>
-4.3

> <JCHEM_POLARIZABILITY>
37.24

> <JCHEM_POLAR_SURFACE_AREA>
79.55

> <JCHEM_REFRACTIVITY>
93

> <JCHEM_ROTATABLE_BOND_COUNT>
5

> <ALOGPS_SOLUBILITY>
1.55e-02 g/l __ 

$$$$
