
  Mrv0541 02231216502D          

 26 26  0  0  1  0            999 V2000
    1.4289   -3.3000    0.0000 C   0  0  0  0  0  0  0  0  0  0  0  0
    1.4289   -2.4750    0.0000 C   0  0  0  0  0  0  0  0  0  0  0  0
    0.7145   -2.0625    0.0000 N   0  0  0  0  0  0  0  0  0  0  0  0
    0.7145   -1.2375    0.0000 C   0  0  0  0  0  0  0  0  0  0  0  0
    1.4289   -0.8250    0.0000 C   0  0  0  0  0  0  0  0  0  0  0  0
    1.4289    0.0000    0.0000 C   0  0  0  0  0  0  0  0  0  0  0  0
    0.7145    0.4125    0.0000 O   0  0  0  0  0  0  0  0  0  0  0  0
    0.7145    1.2375    0.0000 P   0  0  0  0  0  0  0  0  0  0  0  0
    0.7145    2.0625    0.0000 O   0  0  0  0  0  0  0  0  0  0  0  0
   -0.1105    1.2375    0.0000 O   0  0  0  0  0  0  0  0  0  0  0  0
    1.5395    1.2375    0.0000 O   0  0  0  0  0  0  0  0  0  0  0  0
    2.1434   -1.2375    0.0000 C   0  0  0  0  0  0  0  0  0  0  0  0
    2.8579   -0.8250    0.0000 C   0  0  0  0  0  0  0  0  0  0  0  0
    2.8579    0.0000    0.0000 N   0  0  0  0  0  0  0  0  0  0  0  0
    3.5724    0.4125    0.0000 C   0  0  2  0  0  0  0  0  0  0  0  0
    3.5724    1.2375    0.0000 C   0  0  0  0  0  0  0  0  0  0  0  0
    4.2868    1.6500    0.0000 C   0  0  0  0  0  0  0  0  0  0  0  0
    4.2868    2.4750    0.0000 O   0  0  0  0  0  0  0  0  0  0  0  0
    3.5724    2.8875    0.0000 C   0  0  0  0  0  0  0  0  0  0  0  0
    3.5724    3.7125    0.0000 C   0  0  0  0  0  0  0  0  0  0  0  0
    4.2868    4.1250    0.0000 N   0  0  0  0  0  0  0  0  0  0  0  0
    4.2868    0.0000    0.0000 C   0  0  0  0  0  0  0  0  0  0  0  0
    5.0013    0.4125    0.0000 O   0  0  0  0  0  0  0  0  0  0  0  0
    4.2868   -0.8250    0.0000 O   0  0  0  0  0  0  0  0  0  0  0  0
    2.1434   -2.0625    0.0000 C   0  0  0  0  0  0  0  0  0  0  0  0
    2.8579   -2.4750    0.0000 O   0  0  0  0  0  0  0  0  0  0  0  0
  1  2  1  0  0  0  0
  2  3  2  0  0  0  0
  3  4  1  0  0  0  0
  4  5  2  0  0  0  0
  5  6  1  0  0  0  0
  6  7  1  0  0  0  0
  7  8  1  0  0  0  0
  8  9  1  0  0  0  0
  8 10  1  0  0  0  0
  8 11  2  0  0  0  0
  5 12  1  0  0  0  0
 12 13  1  0  0  0  0
 13 14  1  0  0  0  0
 15 14  1  6  0  0  0
 15 16  1  0  0  0  0
 16 17  2  0  0  0  0
 17 18  1  0  0  0  0
 18 19  1  0  0  0  0
 19 20  1  0  0  0  0
 20 21  1  0  0  0  0
 15 22  1  0  0  0  0
 22 23  1  0  0  0  0
 22 24  2  0  0  0  0
 12 25  2  0  0  0  0
  2 25  1  0  0  0  0
 25 26  1  0  0  0  0
M  END
> <DRUGBANK_ID>
DB03287

> <DRUG_GROUPS>
experimental

> <GENERIC_NAME>
4-(2-Amino-Ethoxy)-2-[(3-Hydroxy-2-Methyl-5-Phosphonooxymethyl-Pyridin-4-Ylmethyl)-Amino]-but-3-Enoic Acid

> <CHEMICAL_FORMULA>
C14H22N3O8P

> <MOLECULAR_WEIGHT>
391.3135

> <EXACT_MASS>
391.114451207

> <IUPAC_NAME>
(2R,3E)-4-(2-aminoethoxy)-2-[({3-hydroxy-2-methyl-5-[(phosphonooxy)methyl]pyridin-4-yl}methyl)amino]but-3-enoic acid

> <IUPAC_TRADITIONAL_NAME>
(2R,3E)-4-(2-aminoethoxy)-2-[({3-hydroxy-2-methyl-5-[(phosphonooxy)methyl]pyridin-4-yl}methyl)amino]but-3-enoic acid

> <INCHI_IDENTIFIER>
InChI=1S/C14H22N3O8P/c1-9-13(18)11(10(6-16-9)8-25-26(21,22)23)7-17-12(14(19)20)2-4-24-5-3-15/h2,4,6,12,17-18H,3,5,7-8,15H2,1H3,(H,19,20)(H2,21,22,23)/b4-2+/t12-/m1/s1

> <INCHI_KEY>
InChIKey=ZYLUFTNLRAGXLR-FXMSTWTQSA-N

> <SMILES>
NCCO\C=C\[C@@H](NCC1=C(O)C(C)=NC=C1COP(O)(O)=O)C(O)=O

> <JCHEM_ACCEPTOR_COUNT>
10

> <JCHEM_DONOR_COUNT>
6

> <JCHEM_ACIDIC_PKA>
1.08

> <JCHEM_BASIC_PKA>
9.6

> <JCHEM_PHYSIOLOGICAL_CHARGE>
-1

> <ALOGPS_LOGP>
-2

> <JCHEM_LOGP>
-8.1

> <ALOGPS_LOGS>
-3

> <JCHEM_POLARIZABILITY>
36.62

> <JCHEM_POLAR_SURFACE_AREA>
184.46

> <JCHEM_REFRACTIVITY>
91.08

> <JCHEM_ROTATABLE_BOND_COUNT>
11

> <ALOGPS_SOLUBILITY>
4.36e-01 g/l __ 

$$$$
