
  Mrv0541 02231217242D          

 49 51  0  0  1  0            999 V2000
   -2.4252   -9.3248    0.0000 C   0  0  0  0  0  0  0  0  0  0  0  0
   -3.2179   -9.5536    0.0000 O   0  0  0  0  0  0  0  0  0  0  0  0
   -3.8123   -8.9816    0.0000 C   0  0  0  0  0  0  0  0  0  0  0  0
   -3.6142   -8.1807    0.0000 O   0  0  0  0  0  0  0  0  0  0  0  0
   -4.6050   -9.2104    0.0000 C   0  0  0  0  0  0  0  0  0  0  0  0
   -4.8031  -10.0112    0.0000 C   0  0  0  0  0  0  0  0  0  0  0  0
   -4.2087  -10.5833    0.0000 O   0  0  0  0  0  0  0  0  0  0  0  0
   -5.5958  -10.2400    0.0000 C   0  0  0  0  0  0  0  0  0  0  0  0
   -6.1902   -9.6680    0.0000 C   0  0  0  0  0  0  0  0  0  0  0  0
   -5.9921   -8.8672    0.0000 C   0  0  0  0  0  0  0  0  0  0  0  0
   -5.1995   -8.6383    0.0000 C   0  0  0  0  0  0  0  0  0  0  0  0
   -5.0013   -7.8375    0.0000 O   0  0  0  0  0  0  0  0  0  0  0  0
   -4.2087   -7.6087    0.0000 C   0  0  0  0  0  0  0  0  0  0  0  0
   -4.0105   -6.8078    0.0000 C   0  0  0  0  0  0  0  0  0  0  0  0
   -3.2179   -6.5790    0.0000 C   0  0  0  0  0  0  0  0  0  0  0  0
   -3.0197   -5.7782    0.0000 C   0  0  0  0  0  0  0  0  0  0  0  0
   -2.2271   -5.5494    0.0000 N   0  0  0  0  0  0  0  0  0  0  0  0
   -2.0289   -4.7485    0.0000 C   0  0  0  0  0  0  0  0  0  0  0  0
   -2.6234   -4.1765    0.0000 O   0  0  0  0  0  0  0  0  0  0  0  0
   -1.2363   -4.5197    0.0000 C   0  0  1  0  0  0  0  0  0  0  0  0
   -1.0381   -3.7189    0.0000 C   0  0  0  0  0  0  0  0  0  0  0  0
   -0.2455   -3.4900    0.0000 C   0  0  0  0  0  0  0  0  0  0  0  0
   -0.0473   -2.6892    0.0000 C   0  0  0  0  0  0  0  0  0  0  0  0
    0.7453   -2.4604    0.0000 C   0  0  0  0  0  0  0  0  0  0  0  0
    1.3398   -3.0324    0.0000 C   0  0  0  0  0  0  0  0  0  0  0  0
    1.1416   -3.8333    0.0000 C   0  0  0  0  0  0  0  0  0  0  0  0
    0.3490   -4.0621    0.0000 C   0  0  0  0  0  0  0  0  0  0  0  0
    2.1324   -2.8036    0.0000 N   0  0  0  0  0  0  0  0  0  0  0  0
    2.7269   -3.3756    0.0000 C   0  0  0  0  0  0  0  0  0  0  0  0
    3.5195   -3.1468    0.0000 O   0  0  0  0  0  0  0  0  0  0  0  0
    2.5287   -4.1765    0.0000 C   0  0  0  0  0  0  0  0  0  0  0  0
    1.7361   -4.4053    0.0000 O   0  0  0  0  0  0  0  0  0  0  0  0
    3.1232   -4.7485    0.0000 O   0  0  0  0  0  0  0  0  0  0  0  0
    2.3306   -2.0027    0.0000 C   0  0  0  0  0  0  0  0  0  0  0  0
    1.7361   -1.4307    0.0000 C   0  0  0  0  0  0  0  0  0  0  0  0
    1.9343   -0.6299    0.0000 C   0  0  0  0  0  0  0  0  0  0  0  0
    2.7269   -0.4011    0.0000 C   0  0  0  0  0  0  0  0  0  0  0  0
    3.3214   -0.9731    0.0000 C   0  0  0  0  0  0  0  0  0  0  0  0
    3.1232   -1.7739    0.0000 C   0  0  0  0  0  0  0  0  0  0  0  0
    3.7177   -2.3460    0.0000 C   0  0  0  0  0  0  0  0  0  0  0  0
    4.0281   -3.1103    0.0000 O   0  0  0  0  0  0  0  0  0  0  0  0
    4.5103   -2.1172    0.0000 O   0  0  0  0  0  0  0  0  0  0  0  0
   -0.6418   -5.0917    0.0000 N   0  0  0  0  0  0  0  0  0  0  0  0
   -0.8400   -5.8926    0.0000 C   0  0  0  0  0  0  0  0  0  0  0  0
   -1.6326   -6.1214    0.0000 O   0  0  0  0  0  0  0  0  0  0  0  0
   -0.2455   -6.4646    0.0000 O   0  0  0  0  0  0  0  0  0  0  0  0
   -0.4436   -7.2655    0.0000 C   0  0  0  0  0  0  0  0  0  0  0  0
    0.1508   -7.8375    0.0000 C   0  0  0  0  0  0  0  0  0  0  0  0
   -0.0473   -8.6383    0.0000 C   0  0  0  0  0  0  0  0  0  0  0  0
  1  2  1  0  0  0  0
  2  3  1  0  0  0  0
  3  4  2  0  0  0  0
  3  5  1  0  0  0  0
  5  6  2  0  0  0  0
  6  7  1  0  0  0  0
  6  8  1  0  0  0  0
  8  9  2  0  0  0  0
  9 10  1  0  0  0  0
 10 11  2  0  0  0  0
  5 11  1  0  0  0  0
 11 12  1  0  0  0  0
 12 13  1  0  0  0  0
 13 14  1  0  0  0  0
 14 15  1  0  0  0  0
 15 16  1  0  0  0  0
 16 17  1  0  0  0  0
 17 18  1  0  0  0  0
 18 19  2  0  0  0  0
 18 20  1  0  0  0  0
 20 21  1  0  0  0  0
 21 22  1  0  0  0  0
 22 23  2  0  0  0  0
 23 24  1  0  0  0  0
 24 25  2  0  0  0  0
 25 26  1  0  0  0  0
 26 27  2  0  0  0  0
 22 27  1  0  0  0  0
 25 28  1  0  0  0  0
 28 29  1  0  0  0  0
 29 30  2  0  0  0  0
 29 31  1  0  0  0  0
 31 32  1  0  0  0  0
 31 33  2  0  0  0  0
 28 34  1  0  0  0  0
 34 35  2  0  0  0  0
 35 36  1  0  0  0  0
 36 37  2  0  0  0  0
 37 38  1  0  0  0  0
 38 39  2  0  0  0  0
 34 39  1  0  0  0  0
 39 40  1  0  0  0  0
 40 41  1  0  0  0  0
 40 42  2  0  0  0  0
 20 43  1  1  0  0  0
 43 44  1  0  0  0  0
 44 45  2  0  0  0  0
 44 46  1  0  0  0  0
 46 47  1  0  0  0  0
 47 48  1  0  0  0  0
 48 49  2  0  0  0  0
M  END
> <DRUGBANK_ID>
DB04088

> <DRUG_GROUPS>
experimental

> <GENERIC_NAME>
N-(Allyloxycarbonyl)-4-[N-(Carboxy-Formyl)-2-(Benzoic Acid)-Amino]-L-Phenylalaninyl-Amino-Butyloxy-(6-Hydroxy-Benzoic Acid Methyl Ester)

> <SYNONYMS>


> <CHEMICAL_FORMULA>
C34H35N3O12

> <MOLECULAR_WEIGHT>
677.6546

> <EXACT_MASS>
677.222073599

> <IUPAC_NAME>
2-(1-carboxy-N-{4-[(2R)-2-({4-[3-hydroxy-2-(methoxycarbonyl)phenoxy]butyl}carbamoyl)-2-{[(prop-2-en-1-yloxy)carbonyl]amino}ethyl]phenyl}formamido)benzoic acid

> <IUPAC_TRADITIONAL_NAME>
compound 6

> <INCHI_IDENTIFIER>
InChI=1S/C34H35N3O12/c1-3-18-49-34(46)36-24(29(39)35-17-6-7-19-48-27-12-8-11-26(38)28(27)33(45)47-2)20-21-13-15-22(16-14-21)37(30(40)32(43)44)25-10-5-4-9-23(25)31(41)42/h3-5,8-16,24,38H,1,6-7,17-20H2,2H3,(H,35,39)(H,36,46)(H,41,42)(H,43,44)/t24-/m1/s1

> <INCHI_KEY>
InChIKey=JTJBRKLISQICDU-XMMPIXPASA-N

> <SMILES>
COC(=O)C1=C(O)C=CC=C1OCCCCNC(=O)[C@@H](CC1=CC=C(C=C1)N(C(=O)C(O)=O)C1=CC=CC=C1C(O)=O)NC(=O)OCC=C

> <JCHEM_ACCEPTOR_COUNT>
10

> <JCHEM_DONOR_COUNT>
5

> <JCHEM_ACIDIC_PKA>
2.31

> <JCHEM_BASIC_PKA>
-4

> <JCHEM_PHYSIOLOGICAL_CHARGE>
-2

> <ALOGPS_LOGP>
3.07

> <JCHEM_LOGP>
4.61

> <ALOGPS_LOGS>
-5.5

> <JCHEM_POLARIZABILITY>
68.12

> <JCHEM_POLAR_SURFACE_AREA>
218.1

> <JCHEM_REFRACTIVITY>
172.94

> <JCHEM_ROTATABLE_BOND_COUNT>
19

> <ALOGPS_SOLUBILITY>
2.40e-03 g/l __ 

$$$$
