
  Mrv0541 02231217212D          

 25 27  0  0  1  0            999 V2000
   -4.9224   -1.5312    0.0000 N   0  0  0  0  0  0  0  0  0  0  0  0
   -4.9224   -0.7062    0.0000 C   0  0  2  0  0  0  0  0  0  0  0  0
   -5.6369   -0.2937    0.0000 C   0  0  0  0  0  0  0  0  0  0  0  0
   -6.3514   -0.7062    0.0000 O   0  0  0  0  0  0  0  0  0  0  0  0
   -4.2079   -0.2937    0.0000 C   0  0  0  0  0  0  0  0  0  0  0  0
   -4.2079    0.5313    0.0000 O   0  0  0  0  0  0  0  0  0  0  0  0
   -3.4935   -0.7062    0.0000 N   0  0  0  0  0  0  0  0  0  0  0  0
   -2.7790   -0.2937    0.0000 C   0  0  1  0  0  0  0  0  0  0  0  0
   -2.6928    0.5267    0.0000 C   0  0  2  0  0  0  0  0  0  0  0  0
   -3.3059    1.0788    0.0000 C   0  0  0  0  0  0  0  0  0  0  0  0
   -3.1343    1.8858    0.0000 O   0  0  0  0  0  0  0  0  0  0  0  0
   -1.8858    0.6983    0.0000 O   0  0  0  0  0  0  0  0  0  0  0  0
   -1.4733   -0.0162    0.0000 C   0  0  2  0  0  0  0  0  0  0  0  0
   -2.0253   -0.6293    0.0000 C   0  0  2  0  0  0  0  0  0  0  0  0
   -1.8538   -1.4363    0.0000 O   0  0  0  0  0  0  0  0  0  0  0  0
   -0.6528   -0.1024    0.0000 N   0  0  0  0  0  0  0  0  0  0  0  0
   -0.2403   -0.8169    0.0000 C   0  0  0  0  0  0  0  0  0  0  0  0
    0.5667   -0.6454    0.0000 N   0  0  0  0  0  0  0  0  0  0  0  0
    0.6529    0.1751    0.0000 C   0  0  0  0  0  0  0  0  0  0  0  0
   -0.1008    0.5107    0.0000 C   0  0  0  0  0  0  0  0  0  0  0  0
   -0.1870    1.3311    0.0000 N   0  0  0  0  0  0  0  0  0  0  0  0
    0.4804    1.8161    0.0000 C   0  0  0  0  0  0  0  0  0  0  0  0
    1.2341    1.4805    0.0000 N   0  0  0  0  0  0  0  0  0  0  0  0
    1.3203    0.6600    0.0000 C   0  0  0  0  0  0  0  0  0  0  0  0
    2.0740    0.3245    0.0000 N   0  0  0  0  0  0  0  0  0  0  0  0
  2  1  1  6  0  0  0
  2  3  1  0  0  0  0
  3  4  1  0  0  0  0
  2  5  1  0  0  0  0
  5  6  2  0  0  0  0
  5  7  1  0  0  0  0
  8  7  1  1  0  0  0
  8  9  1  0  0  0  0
  9 10  1  6  0  0  0
 10 11  1  0  0  0  0
  9 12  1  0  0  0  0
 12 13  1  0  0  0  0
 13 14  1  0  0  0  0
  8 14  1  0  0  0  0
 14 15  1  6  0  0  0
 13 16  1  1  0  0  0
 16 17  1  0  0  0  0
 17 18  2  0  0  0  0
 18 19  1  0  0  0  0
 19 20  2  0  0  0  0
 16 20  1  0  0  0  0
 20 21  1  0  0  0  0
 21 22  2  0  0  0  0
 22 23  1  0  0  0  0
 23 24  2  0  0  0  0
 19 24  1  0  0  0  0
 24 25  1  0  0  0  0
M  END
> <DRUGBANK_ID>
DB04024

> <DRUG_GROUPS>
experimental

> <GENERIC_NAME>
N'-L-Seryl-3'-Amino-(3'-Deoxy)-Adenosine

> <CHEMICAL_FORMULA>
C13H19N7O5

> <MOLECULAR_WEIGHT>
353.3339

> <EXACT_MASS>
353.144766753

> <IUPAC_NAME>
(2R)-2-amino-N-[(2R,3R,4R,5R)-5-(6-amino-9H-purin-9-yl)-4-hydroxy-2-(hydroxymethyl)oxolan-3-yl]-3-hydroxypropanamide

> <IUPAC_TRADITIONAL_NAME>
(2R)-2-amino-N-[(2R,3R,4R,5R)-5-(6-aminopurin-9-yl)-4-hydroxy-2-(hydroxymethyl)oxolan-3-yl]-3-hydroxypropanamide

> <INCHI_IDENTIFIER>
InChI=1S/C13H19N7O5/c14-5(1-21)12(24)19-7-6(2-22)25-13(9(7)23)20-4-18-8-10(15)16-3-17-11(8)20/h3-7,9,13,21-23H,1-2,14H2,(H,19,24)(H2,15,16,17)/t5-,6+,7+,9-,13-/m1/s1

> <INCHI_KEY>
InChIKey=ITDKSTILAWHDJI-IZIMKHQASA-N

> <SMILES>
N[C@H](CO)C(=O)N[C@H]1[C@H](CO)O[C@H]([C@@H]1O)N1C=NC2=C1N=CN=C2N

> <JCHEM_ACCEPTOR_COUNT>
10

> <JCHEM_DONOR_COUNT>
6

> <JCHEM_ACIDIC_PKA>
12.17

> <JCHEM_BASIC_PKA>
7.85

> <JCHEM_PHYSIOLOGICAL_CHARGE>
1

> <ALOGPS_LOGP>
-1.9

> <JCHEM_LOGP>
-3.8

> <ALOGPS_LOGS>
-1.6

> <JCHEM_POLARIZABILITY>
33.61

> <JCHEM_POLAR_SURFACE_AREA>
194.66

> <JCHEM_REFRACTIVITY>
83.69

> <JCHEM_ROTATABLE_BOND_COUNT>
5

> <ALOGPS_SOLUBILITY>
9.74e+00 g/l __ 

$$$$
