
  Mrv0541 02231217402D          

 50 54  0  0  1  0            999 V2000
  -14.1482    2.0521    0.0000 C   0  0  0  0  0  0  0  0  0  0  0  0
  -13.6633    2.7195    0.0000 C   0  0  0  0  0  0  0  0  0  0  0  0
  -12.8428    2.6333    0.0000 C   0  0  0  0  0  0  0  0  0  0  0  0
  -12.3579    3.3008    0.0000 O   0  0  0  0  0  0  0  0  0  0  0  0
  -12.5073    1.8796    0.0000 C   0  0  1  0  0  0  0  0  0  0  0  0
  -12.9922    1.2122    0.0000 C   0  0  0  0  0  0  0  0  0  0  0  0
  -11.6868    1.7934    0.0000 C   0  0  0  0  0  0  0  0  0  0  0  0
  -11.2018    2.4608    0.0000 C   0  0  0  0  0  0  0  0  0  0  0  0
  -10.3814    2.3746    0.0000 C   0  0  0  0  0  0  0  0  0  0  0  0
  -10.0458    1.6209    0.0000 N   0  3  0  0  0  0  0  0  0  0  0  0
  -10.5307    0.9535    0.0000 C   0  0  0  0  0  0  0  0  0  0  0  0
  -11.3512    1.0397    0.0000 C   0  0  0  0  0  0  0  0  0  0  0  0
  -11.8361    0.3723    0.0000 C   0  0  0  0  0  0  0  0  0  0  0  0
  -12.6566    0.4585    0.0000 N   0  0  0  0  0  0  0  0  0  0  0  0
  -11.5006   -0.3814    0.0000 O   0  0  0  0  0  0  0  0  0  0  0  0
   -9.2253    1.5347    0.0000 C   0  0  2  0  0  0  0  0  0  0  0  0
   -8.6733    2.1478    0.0000 O   0  0  0  0  0  0  0  0  0  0  0  0
   -7.9196    1.8122    0.0000 C   0  0  1  0  0  0  0  0  0  0  0  0
   -7.2052    2.2247    0.0000 C   0  0  0  0  0  0  0  0  0  0  0  0
   -6.4907    1.8122    0.0000 O   0  0  0  0  0  0  0  0  0  0  0  0
   -5.7762    2.2247    0.0000 P   0  0  2  0  0  0  0  0  0  0  0  0
   -5.3637    1.5103    0.0000 O   0  5  0  0  0  0  0  0  0  0  0  0
   -6.1887    2.9392    0.0000 O   0  0  0  0  0  0  0  0  0  0  0  0
   -5.0617    2.6372    0.0000 O   0  0  0  0  0  0  0  0  0  0  0  0
   -4.3473    2.2247    0.0000 P   0  0  1  0  0  0  0  0  0  0  0  0
   -4.7598    1.5103    0.0000 O   0  0  0  0  0  0  0  0  0  0  0  0
   -3.9348    2.9392    0.0000 O   0  0  0  0  0  0  0  0  0  0  0  0
   -3.6328    1.8122    0.0000 O   0  0  0  0  0  0  0  0  0  0  0  0
   -2.9183    2.2247    0.0000 C   0  0  0  0  0  0  0  0  0  0  0  0
   -2.2039    1.8122    0.0000 C   0  0  2  0  0  0  0  0  0  0  0  0
   -1.4502    2.1478    0.0000 O   0  0  0  0  0  0  0  0  0  0  0  0
   -0.8981    1.5347    0.0000 C   0  0  2  0  0  0  0  0  0  0  0  0
   -1.3106    0.8202    0.0000 C   0  0  2  0  0  0  0  0  0  0  0  0
   -0.9751    0.0665    0.0000 O   0  0  0  0  0  0  0  0  0  0  0  0
   -2.1176    0.9917    0.0000 C   0  0  1  0  0  0  0  0  0  0  0  0
   -2.7307    0.4397    0.0000 O   0  0  0  0  0  0  0  0  0  0  0  0
   -0.0777    1.6209    0.0000 N   0  0  0  0  0  0  0  0  0  0  0  0
    0.4744    1.0078    0.0000 C   0  0  0  0  0  0  0  0  0  0  0  0
    1.2280    1.3434    0.0000 N   0  0  0  0  0  0  0  0  0  0  0  0
    1.1418    2.1639    0.0000 C   0  0  0  0  0  0  0  0  0  0  0  0
    0.3348    2.3354    0.0000 C   0  0  0  0  0  0  0  0  0  0  0  0
    0.0799    3.1200    0.0000 N   0  0  0  0  0  0  0  0  0  0  0  0
    0.6319    3.7331    0.0000 C   0  0  0  0  0  0  0  0  0  0  0  0
    1.4389    3.5616    0.0000 N   0  0  0  0  0  0  0  0  0  0  0  0
    1.6938    2.7770    0.0000 C   0  0  0  0  0  0  0  0  0  0  0  0
    2.5008    2.6054    0.0000 N   0  0  0  0  0  0  0  0  0  0  0  0
   -8.0059    0.9917    0.0000 C   0  0  2  0  0  0  0  0  0  0  0  0
   -7.3928    0.4397    0.0000 O   0  0  0  0  0  0  0  0  0  0  0  0
   -8.8128    0.8202    0.0000 C   0  0  1  0  0  0  0  0  0  0  0  0
   -9.1484    0.0665    0.0000 O   0  0  0  0  0  0  0  0  0  0  0  0
  1  2  1  0  0  0  0
  2  3  1  0  0  0  0
  3  4  2  0  0  0  0
  3  5  1  0  0  0  0
  5  6  1  6  0  0  0
  5  7  1  0  0  0  0
  7  8  2  0  0  0  0
  8  9  1  0  0  0  0
  9 10  2  0  0  0  0
 10 11  1  0  0  0  0
 11 12  2  0  0  0  0
  7 12  1  0  0  0  0
 12 13  1  0  0  0  0
 13 14  1  0  0  0  0
 13 15  2  0  0  0  0
 16 10  1  6  0  0  0
 16 17  1  0  0  0  0
 17 18  1  0  0  0  0
 18 19  1  1  0  0  0
 19 20  1  0  0  0  0
 21 20  1  6  0  0  0
 21 22  1  1  0  0  0
 21 23  2  0  0  0  0
 21 24  1  0  0  0  0
 25 24  1  1  0  0  0
 25 26  1  6  0  0  0
 25 27  2  0  0  0  0
 25 28  1  0  0  0  0
 28 29  1  0  0  0  0
 30 29  1  6  0  0  0
 30 31  1  0  0  0  0
 31 32  1  0  0  0  0
 32 33  1  0  0  0  0
 33 34  1  6  0  0  0
 33 35  1  0  0  0  0
 30 35  1  0  0  0  0
 35 36  1  1  0  0  0
 32 37  1  1  0  0  0
 37 38  1  0  0  0  0
 38 39  2  0  0  0  0
 39 40  1  0  0  0  0
 40 41  2  0  0  0  0
 37 41  1  0  0  0  0
 41 42  1  0  0  0  0
 42 43  2  0  0  0  0
 43 44  1  0  0  0  0
 44 45  2  0  0  0  0
 40 45  1  0  0  0  0
 45 46  1  0  0  0  0
 18 47  1  0  0  0  0
 47 48  1  6  0  0  0
 47 49  1  0  0  0  0
 16 49  1  0  0  0  0
 49 50  1  1  0  0  0
M  END
> <DRUGBANK_ID>
DB04421

> <DRUG_GROUPS>
experimental

> <GENERIC_NAME>
Nicotinamide Adenine Dinucleotide 3-Pentanone Adduct

> <CHEMICAL_FORMULA>
C26H35N7O15P2

> <MOLECULAR_WEIGHT>
747.5415

> <EXACT_MASS>
747.166636509

> <IUPAC_NAME>
1-[(2R,3R,4R,5S)-5-({[(S)-({[(2S,3R,4R,5R)-5-(6-amino-9H-purin-9-yl)-3,4-dihydroxyoxolan-2-yl]methoxy}(hydroxy)phosphoryl phosphonato)]oxy}methyl)-3,4-dihydroxyoxolan-2-yl]-3-carbamoyl-4-[(2S)-3-oxopentan-2-yl]-1$l^{5}-pyridin-1-ylium

> <IUPAC_TRADITIONAL_NAME>
1-[(2R,3R,4R,5S)-5-({[(S)-([(2S,3R,4R,5R)-5-(6-aminopurin-9-yl)-3,4-dihydroxyoxolan-2-yl]methoxy(hydroxy)phosphoryl phosphonato)]oxy}methyl)-3,4-dihydroxyoxolan-2-yl]-3-carbamoyl-4-[(2S)-3-oxopentan-2-yl]-1$l^{5}-pyridin-1-ylium

> <INCHI_IDENTIFIER>
InChI=1S/C26H35N7O15P2/c1-3-14(34)11(2)12-4-5-32(6-13(12)23(28)39)25-20(37)18(35)15(46-25)7-44-49(40,41)48-50(42,43)45-8-16-19(36)21(38)26(47-16)33-10-31-17-22(27)29-9-30-24(17)33/h4-6,9-11,15-16,18-21,25-26,35-38H,3,7-8H2,1-2H3,(H5-,27,28,29,30,39,40,41,42,43)/t11-,15-,16-,18-,19-,20+,21+,25+,26+/m0/s1

> <INCHI_KEY>
InChIKey=BZJFKYRGSZWSLT-LCFZZZLDSA-N

> <SMILES>
CCC(=O)[C@@H](C)C1=CC=[N+](C=C1C(N)=O)[C@@H]1O[C@@H](CO[P@]([O-])(=O)O[P@@](O)(=O)OC[C@@H]2O[C@H]([C@H](O)[C@H]2O)N2C=NC3=C2N=CN=C3N)[C@H](O)[C@H]1O

> <JCHEM_ACCEPTOR_COUNT>
16

> <JCHEM_DONOR_COUNT>
7

> <JCHEM_ACIDIC_PKA>
-7

> <JCHEM_BASIC_PKA>
5

> <JCHEM_PHYSIOLOGICAL_CHARGE>
-1

> <ALOGPS_LOGP>
-0.51

> <JCHEM_LOGP>
-9.3

> <ALOGPS_LOGS>
-2.6

> <JCHEM_POLARIZABILITY>
67.47

> <JCHEM_POLAR_SURFACE_AREA>
338.16

> <JCHEM_REFRACTIVITY>
164.94

> <JCHEM_ROTATABLE_BOND_COUNT>
14

> <ALOGPS_SOLUBILITY>
1.81e+00 g/l __ 

$$$$
