
  Mrv0541 02231217292D          

 24 26  0  0  1  0            999 V2000
    4.0668    3.1729    0.0000 C   0  0  0  0  0  0  0  0  0  0  0  0
    4.0668    2.3479    0.0000 O   0  0  0  0  0  0  0  0  0  0  0  0
    3.3523    1.9354    0.0000 C   0  0  0  0  0  0  0  0  0  0  0  0
    3.3523    1.1104    0.0000 C   0  0  0  0  0  0  0  0  0  0  0  0
    2.6378    0.6979    0.0000 C   0  0  0  0  0  0  0  0  0  0  0  0
    1.9233    1.1104    0.0000 C   0  0  0  0  0  0  0  0  0  0  0  0
    1.1387    0.8555    0.0000 N   0  0  0  0  0  0  0  0  0  0  0  0
    0.6538    1.5229    0.0000 C   0  0  0  0  0  0  0  0  0  0  0  0
    1.1387    2.1904    0.0000 N   0  0  0  0  0  0  0  0  0  0  0  0
    1.9233    1.9354    0.0000 C   0  0  0  0  0  0  0  0  0  0  0  0
    2.6378    2.3479    0.0000 C   0  0  0  0  0  0  0  0  0  0  0  0
    0.8838    0.0709    0.0000 C   0  0  2  0  0  0  0  0  0  0  0  0
    1.3687   -0.5966    0.0000 O   0  0  0  0  0  0  0  0  0  0  0  0
    0.8838   -1.2640    0.0000 C   0  0  1  0  0  0  0  0  0  0  0  0
    1.1387   -2.0486    0.0000 C   0  0  0  0  0  0  0  0  0  0  0  0
    0.5867   -2.6617    0.0000 O   0  0  0  0  0  0  0  0  0  0  0  0
    0.8416   -3.4463    0.0000 P   0  0  0  0  0  0  0  0  0  0  0  0
    1.0966   -4.2310    0.0000 O   0  0  0  0  0  0  0  0  0  0  0  0
    0.0570   -3.7013    0.0000 O   0  0  0  0  0  0  0  0  0  0  0  0
    1.6262   -3.1914    0.0000 O   0  0  0  0  0  0  0  0  0  0  0  0
    0.0992   -1.0091    0.0000 C   0  0  2  0  0  0  0  0  0  0  0  0
   -0.5683   -1.4940    0.0000 O   0  0  0  0  0  0  0  0  0  0  0  0
    0.0992   -0.1841    0.0000 C   0  0  1  0  0  0  0  0  0  0  0  0
   -0.5683    0.3009    0.0000 O   0  0  0  0  0  0  0  0  0  0  0  0
  1  2  1  0  0  0  0
  2  3  1  0  0  0  0
  3  4  2  0  0  0  0
  4  5  1  0  0  0  0
  5  6  2  0  0  0  0
  6  7  1  0  0  0  0
  7  8  1  0  0  0  0
  8  9  2  0  0  0  0
  9 10  1  0  0  0  0
  6 10  1  0  0  0  0
 10 11  2  0  0  0  0
  3 11  1  0  0  0  0
 12  7  1  6  0  0  0
 12 13  1  0  0  0  0
 13 14  1  0  0  0  0
 14 15  1  1  0  0  0
 15 16  1  0  0  0  0
 16 17  1  0  0  0  0
 17 18  1  0  0  0  0
 17 19  1  0  0  0  0
 17 20  2  0  0  0  0
 14 21  1  0  0  0  0
 21 22  1  6  0  0  0
 21 23  1  0  0  0  0
 12 23  1  0  0  0  0
 23 24  1  1  0  0  0
M  END
> <DRUGBANK_ID>
DB04176

> <DRUG_GROUPS>
experimental

> <GENERIC_NAME>
Phosporic Acid Mono-[3,4-Dihydroxy-5-(5-Methoxy-Benzoimidazol-1-Yl)-Tetrahydro-Furan-2-Ylmethyl] Ester

> <CHEMICAL_FORMULA>
C13H17N2O8P

> <MOLECULAR_WEIGHT>
360.2564

> <EXACT_MASS>
360.072252042

> <IUPAC_NAME>
{[(2S,3R,4R,5R)-3,4-dihydroxy-5-(5-methoxy-1H-1,3-benzodiazol-1-yl)oxolan-2-yl]methoxy}phosphonic acid

> <IUPAC_TRADITIONAL_NAME>
[(2S,3R,4R,5R)-3,4-dihydroxy-5-(5-methoxy-1,3-benzodiazol-1-yl)oxolan-2-yl]methoxyphosphonic acid

> <INCHI_IDENTIFIER>
InChI=1S/C13H17N2O8P/c1-21-7-2-3-9-8(4-7)14-6-15(9)13-12(17)11(16)10(23-13)5-22-24(18,19)20/h2-4,6,10-13,16-17H,5H2,1H3,(H2,18,19,20)/t10-,11-,12+,13+/m0/s1

> <INCHI_KEY>
InChIKey=VYUPJUKSTVHSQI-WUHRBBMRSA-N

> <SMILES>
COC1=CC=C2N(C=NC2=C1)[C@@H]1O[C@@H](COP(O)(O)=O)[C@H](O)[C@H]1O

> <JCHEM_ACCEPTOR_COUNT>
8

> <JCHEM_DONOR_COUNT>
4

> <JCHEM_ACIDIC_PKA>
1.22

> <JCHEM_BASIC_PKA>
5.68

> <JCHEM_PHYSIOLOGICAL_CHARGE>
-2

> <ALOGPS_LOGP>
-0.69

> <JCHEM_LOGP>
-2.6

> <ALOGPS_LOGS>
-2.3

> <JCHEM_POLARIZABILITY>
32.62

> <JCHEM_POLAR_SURFACE_AREA>
143.5

> <JCHEM_REFRACTIVITY>
78.9

> <JCHEM_ROTATABLE_BOND_COUNT>
5

> <ALOGPS_SOLUBILITY>
1.90e+00 g/l __ 

$$$$
