
  Mrv0541 02231217392D          

 15 16  0  0  1  0            999 V2000
   -0.4529   -0.9694    0.0000 C   0  0  0  0  0  0  0  0  0  0  0  0
   -0.0404   -0.2549    0.0000 N   0  0  0  0  0  0  0  0  0  0  0  0
   -0.4529    0.4595    0.0000 C   0  0  0  0  0  0  0  0  0  0  0  0
    0.7846   -0.2549    0.0000 C   0  0  0  0  0  0  0  0  0  0  0  0
    1.2695    0.4125    0.0000 N   0  0  0  0  0  0  0  0  0  0  0  0
    2.0542    0.1576    0.0000 C   0  0  2  0  0  0  0  0  0  0  0  0
    2.8388    0.4125    0.0000 C   0  0  1  0  0  0  0  0  0  0  0  0
    3.0937    1.1971    0.0000 O   0  0  0  0  0  0  0  0  0  0  0  0
    3.3237   -0.2549    0.0000 C   0  0  1  0  0  0  0  0  0  0  0  0
    4.1487   -0.2549    0.0000 O   0  0  0  0  0  0  0  0  0  0  0  0
    2.8388   -0.9224    0.0000 C   0  0  2  0  0  0  0  0  0  0  0  0
    3.0937   -1.7070    0.0000 C   0  0  0  0  0  0  0  0  0  0  0  0
    2.5417   -2.3201    0.0000 O   0  0  0  0  0  0  0  0  0  0  0  0
    2.0542   -0.6674    0.0000 C   0  0  2  0  0  0  0  0  0  0  0  0
    1.2695   -0.9224    0.0000 O   0  0  0  0  0  0  0  0  0  0  0  0
  1  2  1  0  0  0  0
  2  3  1  0  0  0  0
  2  4  1  0  0  0  0
  4  5  2  0  0  0  0
  6  5  1  6  0  0  0
  6  7  1  0  0  0  0
  7  8  1  1  0  0  0
  7  9  1  0  0  0  0
  9 10  1  1  0  0  0
  9 11  1  0  0  0  0
 11 12  1  6  0  0  0
 12 13  1  0  0  0  0
 11 14  1  0  0  0  0
  6 14  1  0  0  0  0
 14 15  1  6  0  0  0
  4 15  1  0  0  0  0
M  END
> <DRUGBANK_ID>
DB04404

> <DRUG_GROUPS>
experimental

> <GENERIC_NAME>
Allosamizoline

> <CHEMICAL_FORMULA>
C9H16N2O4

> <MOLECULAR_WEIGHT>
216.2343

> <EXACT_MASS>
216.11100701

> <IUPAC_NAME>
(3aR,4R,5S,6S,6aS)-2-(dimethylamino)-6-(hydroxymethyl)-3aH,4H,5H,6H,6aH-cyclopenta[d][1,3]oxazole-4,5-diol

> <IUPAC_TRADITIONAL_NAME>
allosamizoline

> <INCHI_IDENTIFIER>
InChI=1S/C9H16N2O4/c1-11(2)9-10-5-7(14)6(13)4(3-12)8(5)15-9/h4-8,12-14H,3H2,1-2H3/t4-,5+,6-,7+,8-/m0/s1

> <INCHI_KEY>
InChIKey=MKJAYSJDHSEFRI-YMVPXFTJSA-N

> <SMILES>
CN(C)C1=N[C@@H]2[C@@H](O)[C@@H](O)[C@H](CO)[C@@H]2O1

> <JCHEM_ACCEPTOR_COUNT>
6

> <JCHEM_DONOR_COUNT>
3

> <JCHEM_ACIDIC_PKA>
13.12

> <JCHEM_BASIC_PKA>
6.81

> <JCHEM_PHYSIOLOGICAL_CHARGE>
0

> <ALOGPS_LOGP>
-1.6

> <JCHEM_LOGP>
-1.7

> <ALOGPS_LOGS>
-0.64

> <JCHEM_POLARIZABILITY>
21.77

> <JCHEM_POLAR_SURFACE_AREA>
85.52

> <JCHEM_REFRACTIVITY>
51.68

> <JCHEM_ROTATABLE_BOND_COUNT>
1

> <ALOGPS_SOLUBILITY>
4.99e+01 g/l __ 

$$$$
