
  Mrv0541 02231217432D          

 15 14  0  0  1  0            999 V2000
    2.2836    2.1434    0.0000 N   0  0  0  0  0  0  0  0  0  0  0  0
    2.9980    2.5559    0.0000 C   0  0  0  0  0  0  0  0  0  0  0  0
    2.9980    3.3809    0.0000 N   0  0  0  0  0  0  0  0  0  0  0  0
    3.7125    2.1434    0.0000 N   0  0  0  0  0  0  0  0  0  0  0  0
    4.4270    2.5559    0.0000 C   0  0  0  0  0  0  0  0  0  0  0  0
    5.1414    2.1434    0.0000 C   0  0  0  0  0  0  0  0  0  0  0  0
    5.8559    2.5559    0.0000 S   0  0  0  0  0  0  0  0  0  0  0  0
    6.5704    2.1434    0.0000 C   0  0  1  0  0  0  0  0  0  0  0  0
    7.2849    2.5559    0.0000 C   0  0  0  0  0  0  0  0  0  0  0  0
    7.9993    2.1434    0.0000 C   0  0  0  0  0  0  0  0  0  0  0  0
    8.7138    2.5559    0.0000 O   0  0  0  0  0  0  0  0  0  0  0  0
    7.9993    1.3184    0.0000 O   0  0  0  0  0  0  0  0  0  0  0  0
    6.5704    1.3184    0.0000 C   0  0  0  0  0  0  0  0  0  0  0  0
    7.2849    0.9059    0.0000 O   0  0  0  0  0  0  0  0  0  0  0  0
    5.8559    0.9059    0.0000 O   0  0  0  0  0  0  0  0  0  0  0  0
  1  2  1  0  0  0  0
  2  3  2  0  0  0  0
  2  4  1  0  0  0  0
  4  5  1  0  0  0  0
  5  6  1  0  0  0  0
  6  7  1  0  0  0  0
  8  7  1  1  0  0  0
  8  9  1  0  0  0  0
  9 10  1  0  0  0  0
 10 11  1  0  0  0  0
 10 12  2  0  0  0  0
  8 13  1  0  0  0  0
 13 14  1  0  0  0  0
 13 15  2  0  0  0  0
M  END
> <DRUGBANK_ID>
DB04489

> <DRUG_GROUPS>
experimental

> <GENERIC_NAME>
Guanidinoethylmercaptosuccinic acid

> <SYNONYMS>


> <CHEMICAL_FORMULA>
C7H13N3O4S

> <MOLECULAR_WEIGHT>
235.261

> <EXACT_MASS>
235.062676609

> <IUPAC_NAME>
(2S)-2-[(2-carbamimidamidoethyl)sulfanyl]butanedioic acid

> <IUPAC_TRADITIONAL_NAME>
gemsa

> <INCHI_IDENTIFIER>
InChI=1S/C7H13N3O4S/c8-7(9)10-1-2-15-4(6(13)14)3-5(11)12/h4H,1-3H2,(H,11,12)(H,13,14)(H4,8,9,10)/t4-/m0/s1

> <INCHI_KEY>
InChIKey=VKVCLXDFOQQABP-BYPYZUCNSA-N

> <SMILES>
NC(=N)NCCS[C@@H](CC(O)=O)C(O)=O

> <JCHEM_ACCEPTOR_COUNT>
7

> <JCHEM_DONOR_COUNT>
5

> <JCHEM_ACIDIC_PKA>
3.91

> <JCHEM_BASIC_PKA>
12.11

> <JCHEM_PHYSIOLOGICAL_CHARGE>
-1

> <ALOGPS_LOGP>
-1.2

> <JCHEM_LOGP>
-2.8

> <ALOGPS_LOGS>
-2.1

> <JCHEM_POLARIZABILITY>
22.56

> <JCHEM_POLAR_SURFACE_AREA>
136.5

> <JCHEM_REFRACTIVITY>
64.52

> <JCHEM_ROTATABLE_BOND_COUNT>
7

> <ALOGPS_SOLUBILITY>
1.93e+00 g/l __ 

$$$$
