
  Mrv0541 02231217342D          

 25 24  0  0  1  0            999 V2000
   10.9974    2.2243    0.0000 C   0  0  0  0  0  0  0  0  0  0  0  0
   10.9974    3.0493    0.0000 C   0  0  0  0  0  0  0  0  0  0  0  0
   11.7118    3.4618    0.0000 C   0  0  0  0  0  0  0  0  0  0  0  0
   10.2829    3.4618    0.0000 C   0  0  0  0  0  0  0  0  0  0  0  0
   10.2829    4.2868    0.0000 C   0  0  2  0  0  0  0  0  0  0  0  0
    9.5684    4.6993    0.0000 N   0  0  0  0  0  0  0  0  0  0  0  0
    8.8539    4.2868    0.0000 C   0  0  0  0  0  0  0  0  0  0  0  0
    8.8539    3.4618    0.0000 O   0  0  0  0  0  0  0  0  0  0  0  0
    8.1395    4.6993    0.0000 C   0  0  1  0  0  0  0  0  0  0  0  0
    8.1395    5.5243    0.0000 O   0  0  0  0  0  0  0  0  0  0  0  0
    7.4250    4.2868    0.0000 C   0  0  0  0  0  0  0  0  0  0  0  0
    6.7105    4.6993    0.0000 C   0  0  0  0  0  0  0  0  0  0  0  0
    5.9961    4.2868    0.0000 O   0  0  0  0  0  0  0  0  0  0  0  0
    6.7105    5.5243    0.0000 O   0  0  0  0  0  0  0  0  0  0  0  0
   10.9974    4.6993    0.0000 C   0  0  0  0  0  0  0  0  0  0  0  0
   10.9974    5.5243    0.0000 O   0  0  0  0  0  0  0  0  0  0  0  0
   11.7118    4.2868    0.0000 N   0  0  0  0  0  0  0  0  0  0  0  0
   12.4263    4.6993    0.0000 C   0  0  0  0  0  0  0  0  0  0  0  0
   13.1408    4.2868    0.0000 C   0  0  0  0  0  0  0  0  0  0  0  0
   13.8552    4.6993    0.0000 C   0  0  0  0  0  0  0  0  0  0  0  0
   14.5697    4.2868    0.0000 C   0  0  0  0  0  0  0  0  0  0  0  0
   15.2842    4.6993    0.0000 N   0  0  0  0  0  0  0  0  0  0  0  0
   15.9987    4.2868    0.0000 C   0  0  0  0  0  0  0  0  0  0  0  0
   16.7131    4.6993    0.0000 N   0  0  0  0  0  0  0  0  0  0  0  0
   15.9987    3.4618    0.0000 N   0  3  0  0  0  0  0  0  0  0  0  0
  1  2  1  0  0  0  0
  2  3  1  0  0  0  0
  2  4  1  0  0  0  0
  4  5  1  0  0  0  0
  5  6  1  6  0  0  0
  6  7  1  0  0  0  0
  7  8  2  0  0  0  0
  7  9  1  0  0  0  0
  9 10  1  6  0  0  0
  9 11  1  0  0  0  0
 11 12  1  0  0  0  0
 12 13  1  0  0  0  0
 12 14  2  0  0  0  0
  5 15  1  0  0  0  0
 15 16  2  0  0  0  0
 15 17  1  0  0  0  0
 17 18  1  0  0  0  0
 18 19  1  0  0  0  0
 19 20  1  0  0  0  0
 20 21  1  0  0  0  0
 21 22  1  0  0  0  0
 22 23  1  0  0  0  0
 23 24  1  0  0  0  0
 23 25  2  0  0  0  0
M  END
> <DRUGBANK_ID>
DB04276

> <DRUG_GROUPS>
experimental

> <GENERIC_NAME>
N-[N-[1-Hydroxycarboxyethyl-Carbonyl]Leucylamino-Butyl]-Guanidine

> <CHEMICAL_FORMULA>
C15H30N5O5

> <MOLECULAR_WEIGHT>
360.4292

> <EXACT_MASS>
360.224694095

> <IUPAC_NAME>
[amino({4-[(2S)-2-[(2S)-3-carboxy-2-hydroxypropanamido]-4-methylpentanamido]butyl}amino)methylidene]azanium

> <IUPAC_TRADITIONAL_NAME>
[amino({4-[(2S)-2-[(2S)-3-carboxy-2-hydroxypropanamido]-4-methylpentanamido]butyl}amino)methylidene]azanium

> <INCHI_IDENTIFIER>
InChI=1S/C15H29N5O5/c1-9(2)7-10(20-14(25)11(21)8-12(22)23)13(24)18-5-3-4-6-19-15(16)17/h9-11,21H,3-8H2,1-2H3,(H,18,24)(H,20,25)(H,22,23)(H4,16,17,19)/p+1/t10-,11-/m0/s1

> <INCHI_KEY>
InChIKey=QPQNJAXBPHVASB-QWRGUYRKSA-O

> <SMILES>
CC(C)C[C@H](NC(=O)[C@@H](O)CC(O)=O)C(=O)NCCCCNC(N)=[NH2+]

> <JCHEM_ACCEPTOR_COUNT>
7

> <JCHEM_DONOR_COUNT>
7

> <JCHEM_ACIDIC_PKA>
3.95

> <JCHEM_BASIC_PKA>
11.88

> <JCHEM_PHYSIOLOGICAL_CHARGE>
0

> <ALOGPS_LOGP>
0.07

> <JCHEM_LOGP>
-3.2

> <ALOGPS_LOGS>
-2.6

> <JCHEM_POLARIZABILITY>
38.43

> <JCHEM_POLAR_SURFACE_AREA>
179.37

> <JCHEM_REFRACTIVITY>
101.54

> <JCHEM_ROTATABLE_BOND_COUNT>
12

> <ALOGPS_SOLUBILITY>
1.10e+00 g/l __ 

$$$$
