
  Mrv0541 02231217502D          

 12 12  0  0  0  0            999 V2000
    2.8579    0.0000    0.0000 O   0  0  0  0  0  0  0  0  0  0  0  0
    2.1434   -0.4125    0.0000 C   0  0  0  0  0  0  0  0  0  0  0  0
    2.1434   -1.2375    0.0000 O   0  0  0  0  0  0  0  0  0  0  0  0
    1.4289    0.0000    0.0000 C   0  0  0  0  0  0  0  0  0  0  0  0
    0.7145   -0.4125    0.0000 C   0  0  0  0  0  0  0  0  0  0  0  0
    0.7145   -1.2375    0.0000 O   0  0  0  0  0  0  0  0  0  0  0  0
    0.0000    0.0000    0.0000 C   0  0  0  0  0  0  0  0  0  0  0  0
   -0.7145   -0.4125    0.0000 I   0  0  0  0  0  0  0  0  0  0  0  0
    0.0000    0.8250    0.0000 C   0  0  0  0  0  0  0  0  0  0  0  0
    0.7145    1.2375    0.0000 C   0  0  0  0  0  0  0  0  0  0  0  0
    0.7145    2.0625    0.0000 I   0  0  0  0  0  0  0  0  0  0  0  0
    1.4289    0.8250    0.0000 C   0  0  0  0  0  0  0  0  0  0  0  0
  1  2  1  0  0  0  0
  2  3  2  0  0  0  0
  2  4  1  0  0  0  0
  4  5  2  0  0  0  0
  5  6  1  0  0  0  0
  5  7  1  0  0  0  0
  7  8  1  0  0  0  0
  7  9  2  0  0  0  0
  9 10  1  0  0  0  0
 10 11  1  0  0  0  0
 10 12  2  0  0  0  0
  4 12  1  0  0  0  0
M  END
> <DRUGBANK_ID>
DB04674

> <DRUG_GROUPS>
experimental

> <GENERIC_NAME>
2-HYDROXY-3,5-DIIODOBENZOIC ACID

> <CHEMICAL_FORMULA>
C7H4I2O3

> <MOLECULAR_WEIGHT>
389.9138

> <EXACT_MASS>
389.824980834

> <IUPAC_NAME>
2-hydroxy-3,5-diiodobenzoic acid

> <IUPAC_TRADITIONAL_NAME>
3,5-diiodosalicylic acid

> <INCHI_IDENTIFIER>
InChI=1S/C7H4I2O3/c8-3-1-4(7(11)12)6(10)5(9)2-3/h1-2,10H,(H,11,12)

> <INCHI_KEY>
InChIKey=DHZVWQPHNWDCFS-UHFFFAOYSA-N

> <SMILES>
OC(=O)C1=C(O)C(I)=CC(I)=C1

> <JCHEM_ACCEPTOR_COUNT>
3

> <JCHEM_DONOR_COUNT>
2

> <JCHEM_ACIDIC_PKA>
2.51

> <JCHEM_BASIC_PKA>
-7.1

> <JCHEM_PHYSIOLOGICAL_CHARGE>
-1

> <ALOGPS_LOGP>
3.13

> <JCHEM_LOGP>
3.84

> <ALOGPS_LOGS>
-3.4

> <JCHEM_POLARIZABILITY>
23.86

> <JCHEM_POLAR_SURFACE_AREA>
57.53

> <JCHEM_REFRACTIVITY>
62.02

> <JCHEM_ROTATABLE_BOND_COUNT>
1

> <ALOGPS_SOLUBILITY>
1.55e-01 g/l __ 

$$$$
