
  Mrv0541 02231218012D          

 12 11  0  0  1  0            999 V2000
    4.2361   -1.0312    0.0000 O   0  0  0  0  0  0  0  0  0  0  0  0
    3.5217    1.0312    0.0000 O   0  0  0  0  0  0  0  0  0  0  0  0
    4.9504    1.0312    0.0000 O   0  0  0  0  0  0  0  0  0  0  0  0
    2.0928    0.2063    0.0000 O   0  0  0  0  0  0  0  0  0  0  0  0
    5.6650   -1.0312    0.0000 O   0  0  0  0  0  0  0  0  0  0  0  0
    7.0938   -0.2063    0.0000 O   0  0  0  0  0  0  0  0  0  0  0  0
    4.2361   -0.2063    0.0000 C   0  0  1  0  0  0  0  0  0  0  0  0
    3.5217    0.2063    0.0000 C   0  0  1  0  0  0  0  0  0  0  0  0
    4.9504    0.2063    0.0000 C   0  0  1  0  0  0  0  0  0  0  0  0
    2.8072   -0.2063    0.0000 C   0  0  0  0  0  0  0  0  0  0  0  0
    5.6650   -0.2063    0.0000 C   0  0  0  0  0  0  0  0  0  0  0  0
    6.3793    0.2063    0.0000 C   0  0  0  0  0  0  0  0  0  0  0  0
  7  1  1  1  0  0  0
  8  2  1  1  0  0  0
  9  3  1  6  0  0  0
  4 10  1  0  0  0  0
  5 11  2  0  0  0  0
  6 12  1  0  0  0  0
  7  8  1  0  0  0  0
  7  9  1  0  0  0  0
  8 10  1  0  0  0  0
  9 11  1  0  0  0  0
 11 12  1  0  0  0  0
M  END
> <DRUGBANK_ID>
DB04936

> <DRUG_GROUPS>
investigational

> <GENERIC_NAME>
Tagatose

> <SYNONYMS>


> <BRANDS>


> <CHEMICAL_FORMULA>
C6H12O6

> <MOLECULAR_WEIGHT>
180.1559

> <EXACT_MASS>
180.063388116

> <IUPAC_NAME>
(3S,4S,5R)-1,3,4,5,6-pentahydroxyhexan-2-one

> <IUPAC_TRADITIONAL_NAME>
tagatose

> <INCHI_IDENTIFIER>
InChI=1S/C6H12O6/c7-1-3(9)5(11)6(12)4(10)2-8/h3,5-9,11-12H,1-2H2/t3-,5+,6-/m1/s1

> <INCHI_KEY>
InChIKey=BJHIKXHVCXFQLS-PQLUHFTBSA-N

> <SMILES>
OC[C@@H](O)[C@H](O)[C@H](O)C(=O)CO

> <JCHEM_ACCEPTOR_COUNT>
6

> <JCHEM_DONOR_COUNT>
5

> <JCHEM_ACIDIC_PKA>
9.48

> <JCHEM_BASIC_PKA>
-3

> <JCHEM_PHYSIOLOGICAL_CHARGE>
0

> <ALOGPS_LOGP>
-2.2

> <JCHEM_LOGP>
-3.3

> <ALOGPS_LOGS>
0.35

> <JCHEM_POLARIZABILITY>
16.44

> <JCHEM_POLAR_SURFACE_AREA>
118.22

> <JCHEM_REFRACTIVITY>
37.56

> <JCHEM_ROTATABLE_BOND_COUNT>
5

> <ALOGPS_SOLUBILITY>
3.99e+02 g/l __ 

$$$$
