
  Mrv0541 02231218032D          

 81 84  0  0  1  0            999 V2000
    4.5079    2.4144    0.0000 O   0  0  0  0  0  0  0  0  0  0  0  0
    6.6514    0.3519    0.0000 O   0  0  0  0  0  0  0  0  0  0  0  0
    5.4079    0.9915    0.0000 O   0  0  0  0  0  0  0  0  0  0  0  0
    7.2179   -1.0761    0.0000 O   0  0  0  0  0  0  0  0  0  0  0  0
    6.3364    2.6480    0.0000 O   0  0  0  0  0  0  0  0  0  0  0  0
    4.5079    3.2394    0.0000 O   0  0  0  0  0  0  0  0  0  0  0  0
    7.0746   -0.2637    0.0000 O   0  0  0  0  0  0  0  0  0  0  0  0
    4.8964    1.2300    0.0000 O   0  0  0  0  0  0  0  0  0  0  0  0
    6.4373   -1.8845    0.0000 O   0  0  0  0  0  0  0  0  0  0  0  0
    7.2005    0.6469    0.0000 O   0  0  0  0  0  0  0  0  0  0  0  0
    1.6500    2.4144    0.0000 O   0  0  0  0  0  0  0  0  0  0  0  0
    3.2223    2.4269    0.0000 O   0  0  0  0  0  0  0  0  0  0  0  0
    5.0913    3.8228    0.0000 O   0  0  0  0  0  0  0  0  0  0  0  0
    6.5475   -4.0645    0.0000 O   0  0  0  0  0  0  0  0  0  0  0  0
    2.3232   -3.0201    0.0000 O   0  0  0  0  0  0  0  0  0  0  0  0
    5.2224    2.0019    0.0000 N   0  0  0  0  0  0  0  0  0  0  0  0
    5.8349   -0.1752    0.0000 N   0  0  0  0  0  0  0  0  0  0  0  0
    7.5633   -2.7642    0.0000 N   0  0  0  0  0  0  0  0  0  0  0  0
    8.6252   -0.8280    0.0000 N   0  0  0  0  0  0  0  0  0  0  0  0
    3.0790    1.5894    0.0000 N   0  0  0  0  0  0  0  0  0  0  0  0
    7.6131    2.1864    0.0000 N   0  0  0  0  0  0  0  0  0  0  0  0
    7.5634    1.0791    0.0000 N   0  0  0  0  0  0  0  0  0  0  0  0
    5.9370    1.5894    0.0000 C   0  0  1  0  0  0  0  0  0  0  0  0
    5.8603    0.3561    0.0000 C   0  0  0  0  0  0  0  0  0  0  0  0
    4.6392    0.1667    0.0000 C   0  0  0  0  0  0  0  0  0  0  0  0
    4.1926    1.3189    0.0000 C   0  0  0  0  0  0  0  0  0  0  0  0
    4.5079    1.5894    0.0000 C   0  0  0  0  0  0  0  0  0  0  0  0
    5.9370    0.7644    0.0000 C   0  0  0  0  0  0  0  0  0  0  0  0
    3.7935    2.0019    0.0000 C   0  0  2  0  0  0  0  0  0  0  0  0
    8.1364   -2.1708    0.0000 C   0  0  1  0  0  0  0  0  0  0  0  0
    8.8780   -2.5325    0.0000 C   0  0  0  0  0  0  0  0  0  0  0  0
    8.7631   -3.3494    0.0000 C   0  0  0  0  0  0  0  0  0  0  0  0
    3.6502    1.1894    0.0000 C   0  0  0  0  0  0  0  0  0  0  0  0
    7.9506   -3.4927    0.0000 C   0  0  0  0  0  0  0  0  0  0  0  0
    5.0380   -0.3888    0.0000 C   0  0  0  0  0  0  0  0  0  0  0  0
    8.4819   -0.0155    0.0000 C   0  0  2  0  0  0  0  0  0  0  0  0
    7.9931   -1.3583    0.0000 C   0  0  0  0  0  0  0  0  0  0  0  0
    6.8987    2.5989    0.0000 C   0  0  2  0  0  0  0  0  0  0  0  0
    2.8750    0.9072    0.0000 C   0  0  0  0  0  0  0  0  0  0  0  0
    7.4820    3.1822    0.0000 C   0  0  2  0  0  0  0  0  0  0  0  0
    9.1139    0.5148    0.0000 C   0  0  0  0  0  0  0  0  0  0  0  0
    6.7881    1.3614    0.0000 C   0  0  2  0  0  0  0  0  0  0  0  0
    6.6852    3.3958    0.0000 C   0  0  2  0  0  0  0  0  0  0  0  0
    6.2048    0.7779    0.0000 C   0  0  2  0  0  0  0  0  0  0  0  0
    4.2161   -0.3169    0.0000 C   0  0  0  0  0  0  0  0  0  0  0  0
    9.8892    0.2327    0.0000 C   0  0  0  0  0  0  0  0  0  0  0  0
    7.7066    0.2666    0.0000 C   0  0  0  0  0  0  0  0  0  0  0  0
    5.6213   -0.9722    0.0000 C   0  0  0  0  0  0  0  0  0  0  0  0
    4.8245    0.4081    0.0000 C   0  0  0  0  0  0  0  0  0  0  0  0
    6.7464   -2.6494    0.0000 C   0  0  0  0  0  0  0  0  0  0  0  0
    7.6131    1.3614    0.0000 C   0  0  0  0  0  0  0  0  0  0  0  0
    8.2789    2.9686    0.0000 C   0  0  0  0  0  0  0  0  0  0  0  0
    2.3645    2.0019    0.0000 C   0  0  0  0  0  0  0  0  0  0  0  0
    2.7317    0.0949    0.0000 C   0  0  0  0  0  0  0  0  0  0  0  0
    2.2430    1.4376    0.0000 C   0  0  0  0  0  0  0  0  0  0  0  0
    9.4004   -1.1101    0.0000 C   0  0  0  0  0  0  0  0  0  0  0  0
    5.8882    3.6093    0.0000 C   0  0  0  0  0  0  0  0  0  0  0  0
    2.3645    2.8269    0.0000 C   0  0  1  0  0  0  0  0  0  0  0  0
    7.2685    3.9791    0.0000 C   0  0  0  0  0  0  0  0  0  0  0  0
    3.7429   -0.9927    0.0000 C   0  0  0  0  0  0  0  0  0  0  0  0
    3.7935    2.8269    0.0000 C   0  0  2  0  0  0  0  0  0  0  0  0
    6.4183    1.5749    0.0000 C   0  0  0  0  0  0  0  0  0  0  0  0
   10.5211    0.7630    0.0000 C   0  0  0  0  0  0  0  0  0  0  0  0
   10.0324   -0.5798    0.0000 C   0  0  0  0  0  0  0  0  0  0  0  0
    3.0790    3.2394    0.0000 C   0  0  0  0  0  0  0  0  0  0  0  0
    8.8623    3.5520    0.0000 C   0  0  0  0  0  0  0  0  0  0  0  0
    3.7935    3.6519    0.0000 C   0  0  0  0  0  0  0  0  0  0  0  0
    5.3048    3.0259    0.0000 C   0  0  0  0  0  0  0  0  0  0  0  0
    6.2384   -3.2996    0.0000 C   0  0  0  0  0  0  0  0  0  0  0  0
    2.3645    3.6519    0.0000 C   0  0  0  0  0  0  0  0  0  0  0  0
    4.0915   -1.7404    0.0000 C   0  0  0  0  0  0  0  0  0  0  0  0
    2.9210   -0.9208    0.0000 C   0  0  0  0  0  0  0  0  0  0  0  0
    4.5079    4.0644    0.0000 C   0  0  0  0  0  0  0  0  0  0  0  0
    3.0790    4.0645    0.0000 C   0  0  0  0  0  0  0  0  0  0  0  0
    5.4214   -3.1847    0.0000 C   0  0  0  0  0  0  0  0  0  0  0  0
    3.6183   -2.4162    0.0000 C   0  0  0  0  0  0  0  0  0  0  0  0
    2.4478   -1.5966    0.0000 C   0  0  0  0  0  0  0  0  0  0  0  0
    2.7965   -2.3443    0.0000 C   0  0  0  0  0  0  0  0  0  0  0  0
    2.6719   -3.7678    0.0000 C   0  0  0  0  0  0  0  0  0  0  0  0
    6.5085    1.9194    0.0000 H   0  0  0  0  0  0  0  0  0  0  0  0
    6.3750    2.1970    0.0000 H   0  0  0  0  0  0  0  0  0  0  0  0
  1 27  2  0  0  0  0
  2 28  2  0  0  0  0
  3 44  1  0  0  0  0
  3 49  1  0  0  0  0
  4 37  2  0  0  0  0
 43  5  1  6  0  0  0
  6 61  1  0  0  0  0
  6 68  1  0  0  0  0
  7 47  2  0  0  0  0
  8 49  2  0  0  0  0
  9 50  2  0  0  0  0
 10 51  2  0  0  0  0
 11 53  2  0  0  0  0
 12 65  2  0  0  0  0
 13 68  2  0  0  0  0
 14 69  2  0  0  0  0
 15 78  1  0  0  0  0
 15 79  1  0  0  0  0
 16 23  1  0  0  0  0
 16 26  1  0  0  0  0
 16 27  1  0  0  0  0
 17 28  1  0  0  0  0
 17 35  1  0  0  0  0
 17 48  1  0  0  0  0
 18 30  1  0  0  0  0
 18 34  1  0  0  0  0
 18 50  1  0  0  0  0
 36 19  1  1  0  0  0
 19 37  1  0  0  0  0
 19 56  1  0  0  0  0
 20 29  1  0  0  0  0
 20 53  1  0  0  0  0
 21 38  1  0  0  0  0
 21 51  1  0  0  0  0
 42 22  1  1  0  0  0
 22 47  1  0  0  0  0
 23 24  1  0  0  0  0
 23 28  1  0  0  0  0
 23 80  1  1  0  0  0
 24 25  1  0  0  0  0
 25 26  1  0  0  0  0
 27 29  1  0  0  0  0
 29 33  1  1  0  0  0
 30 31  1  0  0  0  0
 30 37  1  6  0  0  0
 31 32  1  0  0  0  0
 32 34  1  0  0  0  0
 33 39  1  0  0  0  0
 35 45  1  0  0  0  0
 35 49  1  0  0  0  0
 36 41  1  0  0  0  0
 36 47  1  0  0  0  0
 38 40  1  0  0  0  0
 38 43  1  0  0  0  0
 38 81  1  6  0  0  0
 39 54  1  0  0  0  0
 39 55  1  0  0  0  0
 40 52  1  0  0  0  0
 40 59  1  1  0  0  0
 41 46  1  0  0  0  0
 42 44  1  0  0  0  0
 42 51  1  0  0  0  0
 43 57  1  0  0  0  0
 44 62  1  6  0  0  0
 45 60  1  0  0  0  0
 46 63  1  0  0  0  0
 46 64  1  0  0  0  0
 50 69  1  0  0  0  0
 52 66  1  0  0  0  0
 53 58  1  0  0  0  0
 57 68  1  0  0  0  0
 58 65  1  0  0  0  0
 58 70  1  6  0  0  0
 60 71  2  0  0  0  0
 60 72  1  0  0  0  0
 61 65  1  0  0  0  0
 61 67  1  1  0  0  0
 67 73  1  0  0  0  0
 67 74  1  0  0  0  0
 69 75  1  0  0  0  0
 71 76  1  0  0  0  0
 72 77  2  0  0  0  0
 76 78  2  0  0  0  0
 77 78  1  0  0  0  0
M  END
> <DRUGBANK_ID>
DB04977

> <DRUG_GROUPS>
investigational

> <GENERIC_NAME>
Aplidine

> <SYNONYMS>


> <BRANDS>


> <CHEMICAL_FORMULA>
C57H87N7O15

> <MOLECULAR_WEIGHT>
1110.3386

> <EXACT_MASS>
1109.626015149

> <IUPAC_NAME>
(2R)-N-[(6S,7R,10R,11S,15S,17R,20S,25aS)-10-[(2S)-butan-2-yl]-11-hydroxy-3-[(4-methoxyphenyl)methyl]-2,6,17-trimethyl-20-(2-methylpropyl)-1,4,8,13,16,18,21-heptaoxo-15-(propan-2-yl)-docosahydro-1H-pyrrolo[2,1-f]1,15-dioxa-4,7,10,20-tetraazacyclotricosan-7-yl]-4-methyl-2-{N-methyl-1-[(2S)-1-(2-oxopropanoyl)pyrrolidin-2-yl]formamido}pentanamide

> <IUPAC_TRADITIONAL_NAME>
(2R)-N-[(6S,7R,10R,11S,15S,17R,20S,25aS)-10-[(2S)-butan-2-yl]-11-hydroxy-15-isopropyl-3-[(4-methoxyphenyl)methyl]-2,6,17-trimethyl-20-(2-methylpropyl)-1,4,8,13,16,18,21-heptaoxo-tetradecahydro-3H-pyrrolo[2,1-f]1,15-dioxa-4,7,10,20-tetraazacyclotricosan-7-yl]-4-methyl-2-{N-methyl-1-[(2S)-1-(2-oxopropanoyl)pyrrolidin-2-yl]formamido}pentanamide

> <INCHI_IDENTIFIER>
InChI=1S/C57H87N7O15/c1-15-33(8)46-44(66)29-45(67)79-49(32(6)7)48(68)34(9)50(69)58-39(26-30(2)3)54(73)64-25-17-19-41(64)56(75)62(13)43(28-37-20-22-38(77-14)23-21-37)57(76)78-36(11)47(52(71)59-46)60-51(70)42(27-31(4)5)61(12)55(74)40-18-16-24-63(40)53(72)35(10)65/h20-23,30-34,36,39-44,46-47,49,66H,15-19,24-29H2,1-14H3,(H,58,69)(H,59,71)(H,60,70)/t33-,34+,36-,39-,40-,41-,42+,43?,44-,46+,47+,49-/m0/s1

> <INCHI_KEY>
InChIKey=UUSZLLQJYRSZIS-GHRWIAHFSA-N

> <SMILES>
[H][C@@]12CCCN1C(=O)[C@H](CC(C)C)NC(=O)[C@H](C)C(=O)[C@@H](OC(=O)C[C@H](O)[C@]([H])(NC(=O)[C@H](NC(=O)[C@@H](CC(C)C)N(C)C(=O)[C@@H]1CCCN1C(=O)C(C)=O)[C@H](C)OC(=O)C(CC1=CC=C(OC)C=C1)N(C)C2=O)[C@@H](C)CC)C(C)C

> <JCHEM_ACCEPTOR_COUNT>
13

> <JCHEM_DONOR_COUNT>
4

> <JCHEM_ACIDIC_PKA>
10.88

> <JCHEM_BASIC_PKA>
-3.1

> <JCHEM_PHYSIOLOGICAL_CHARGE>
0

> <ALOGPS_LOGP>
3.07

> <JCHEM_LOGP>
3.98

> <ALOGPS_LOGS>
-4.7

> <JCHEM_POLARIZABILITY>
117.92

> <JCHEM_POLAR_SURFACE_AREA>
284.74

> <JCHEM_REFRACTIVITY>
288.14

> <JCHEM_ROTATABLE_BOND_COUNT>
15

> <ALOGPS_SOLUBILITY>
2.01e-02 g/l __ 

$$$$
