
  Mrv0541 02231217582D          

 54 59  0  0  1  0            999 V2000
    3.5220    0.6683    0.0000 Br   0  0  0  0  0  0  0  0  0  0  0  0
    2.0930   -1.8068    0.0000 Br   0  0  0  0  0  0  0  0  0  0  0  0
    8.5234   -5.5194    0.0000 O    0  0  0  0  0  0  0  0  0  0  0  0
    5.6655   -3.0443    0.0000 O    0  0  0  0  0  0  0  0  0  0  0  0
    7.8089    0.6683    0.0000 O    0  0  0  0  0  0  0  0  0  0  0  0
    4.9509   -0.1568    0.0000 O    0  0  0  0  0  0  0  0  0  0  0  0
    2.0930   -0.1568    0.0000 O    0  0  0  0  0  0  0  0  0  0  0  0
    9.2379   -4.2818    0.0000 N    0  0  0  0  0  0  0  0  0  0  0  0
    7.0944   -3.0443    0.0000 N    0  0  0  0  0  0  0  0  0  0  0  0
    9.9524   -5.5194    0.0000 N    0  0  0  0  0  0  0  0  0  0  0  0
    6.3799   -1.8068    0.0000 N    0  0  0  0  0  0  0  0  0  0  0  0
    7.0944    1.9058    0.0000 N    0  0  0  0  0  0  0  0  0  0  0  0
    7.0944    3.5558    0.0000 N    0  0  0  0  0  0  0  0  0  0  0  0
    6.3799   -0.1568    0.0000 N    0  0  0  0  0  0  0  0  0  0  0  0
    4.2365    3.5558    0.0000 N    0  0  0  0  0  0  0  0  0  0  0  0
    7.0944    6.0309    0.0000 N    0  0  0  0  0  0  0  0  0  0  0  0
    8.5234   -3.8693    0.0000 C    0  0  0  0  0  0  0  0  0  0  0  0
    8.5234   -3.0443    0.0000 C    0  0  0  0  0  0  0  0  0  0  0  0
    7.8089   -4.2818    0.0000 C    0  0  0  0  0  0  0  0  0  0  0  0
    7.8089   -2.6318    0.0000 C    0  0  0  0  0  0  0  0  0  0  0  0
    7.0944   -3.8693    0.0000 C    0  0  0  0  0  0  0  0  0  0  0  0
    9.9524   -3.8693    0.0000 C    0  0  0  0  0  0  0  0  0  0  0  0
    9.2379   -5.1069    0.0000 C    0  0  0  0  0  0  0  0  0  0  0  0
    6.3799   -2.6318    0.0000 C    0  0  0  0  0  0  0  0  0  0  0  0
   10.6668   -4.2818    0.0000 C    0  0  0  0  0  0  0  0  0  0  0  0
   10.6668   -5.1069    0.0000 C    0  0  0  0  0  0  0  0  0  0  0  0
    5.6655   -1.3943    0.0000 C    0  0  0  0  0  0  0  0  0  0  0  0
    6.3799    0.6683    0.0000 C    0  0  0  0  0  0  0  0  0  0  0  0
    6.3799    2.3183    0.0000 C    0  0  0  0  0  0  0  0  0  0  0  0
    7.8089    2.3183    0.0000 C    0  0  0  0  0  0  0  0  0  0  0  0
    6.3799    3.1433    0.0000 C    0  0  0  0  0  0  0  0  0  0  0  0
    7.8089    3.1433    0.0000 C    0  0  0  0  0  0  0  0  0  0  0  0
    7.0944    1.0808    0.0000 C    0  0  0  0  0  0  0  0  0  0  0  0
    5.6655    1.0808    0.0000 C    0  0  0  0  0  0  0  0  0  0  0  0
    5.6655   -0.5693    0.0000 C    0  0  0  0  0  0  0  0  0  0  0  0
   11.4044   -3.8407    0.0000 C    0  0  0  0  0  0  0  0  0  0  0  0
    4.9509   -1.8068    0.0000 C    0  0  0  0  0  0  0  0  0  0  0  0
    5.6655    1.9058    0.0000 C    0  0  0  0  0  0  0  0  0  0  0  0
   11.4044   -5.5480    0.0000 C    0  0  0  0  0  0  0  0  0  0  0  0
    7.0944    4.3808    0.0000 C    0  0  0  0  0  0  0  0  0  0  0  0
   12.1519   -4.2647    0.0000 C    0  0  0  0  0  0  0  0  0  0  0  0
    4.9509    2.3183    0.0000 C    0  0  0  0  0  0  0  0  0  0  0  0
   12.1519   -5.1240    0.0000 C    0  0  0  0  0  0  0  0  0  0  0  0
    4.2365   -1.3943    0.0000 C    0  0  0  0  0  0  0  0  0  0  0  0
    4.9509    3.1433    0.0000 C    0  0  0  0  0  0  0  0  0  0  0  0
    6.3799    4.7934    0.0000 C    0  0  0  0  0  0  0  0  0  0  0  0
    7.8089    4.7934    0.0000 C    0  0  0  0  0  0  0  0  0  0  0  0
    3.5220   -1.8068    0.0000 C    0  0  0  0  0  0  0  0  0  0  0  0
    4.2365   -0.5693    0.0000 C    0  0  0  0  0  0  0  0  0  0  0  0
    6.3799    5.6184    0.0000 C    0  0  0  0  0  0  0  0  0  0  0  0
    7.8089    5.6184    0.0000 C    0  0  0  0  0  0  0  0  0  0  0  0
    3.5220   -0.1568    0.0000 C    0  0  0  0  0  0  0  0  0  0  0  0
    2.8075   -1.3943    0.0000 C    0  0  0  0  0  0  0  0  0  0  0  0
    2.8075   -0.5693    0.0000 C    0  0  0  0  0  0  0  0  0  0  0  0
  1 52  1  0  0  0  0
  2 53  1  0  0  0  0
  3 23  2  0  0  0  0
  4 24  2  0  0  0  0
  5 33  2  0  0  0  0
  6 35  2  0  0  0  0
  7 54  1  0  0  0  0
  8 17  1  0  0  0  0
  8 22  1  0  0  0  0
  8 23  1  0  0  0  0
  9 20  1  0  0  0  0
  9 21  1  0  0  0  0
  9 24  1  0  0  0  0
 10 23  1  0  0  0  0
 10 26  1  0  0  0  0
 11 24  1  0  0  0  0
 11 27  1  0  0  0  0
 12 29  1  0  0  0  0
 12 30  1  0  0  0  0
 12 33  1  0  0  0  0
 13 31  1  0  0  0  0
 13 32  1  0  0  0  0
 13 40  1  0  0  0  0
 14 28  1  0  0  0  0
 14 35  1  0  0  0  0
 15 45  1  0  0  0  0
 16 50  2  0  0  0  0
 16 51  1  0  0  0  0
 17 18  1  0  0  0  0
 17 19  1  0  0  0  0
 18 20  1  0  0  0  0
 19 21  1  0  0  0  0
 22 25  1  0  0  0  0
 25 26  1  0  0  0  0
 25 36  2  0  0  0  0
 26 39  2  0  0  0  0
 27 35  1  0  0  0  0
 27 37  1  0  0  0  0
 28 33  1  0  0  0  0
 28 34  1  0  0  0  0
 29 31  1  0  0  0  0
 30 32  1  0  0  0  0
 34 38  1  0  0  0  0
 36 41  1  0  0  0  0
 37 44  1  0  0  0  0
 38 42  1  0  0  0  0
 39 43  1  0  0  0  0
 40 46  2  0  0  0  0
 40 47  1  0  0  0  0
 41 43  2  0  0  0  0
 42 45  1  0  0  0  0
 44 48  2  0  0  0  0
 44 49  1  0  0  0  0
 46 50  1  0  0  0  0
 47 51  2  0  0  0  0
 48 53  1  0  0  0  0
 49 52  2  0  0  0  0
 52 54  1  0  0  0  0
 53 54  2  0  0  0  0
M  END
> <DRUGBANK_ID>
DB04869

> <DRUG_GROUPS>
investigational

> <GENERIC_NAME>
Olcegepant

> <CHEMICAL_FORMULA>
C38H47Br2N9O5

> <MOLECULAR_WEIGHT>
869.645

> <EXACT_MASS>
867.206690953

> <IUPAC_NAME>
N-{6-amino-1-oxo-1-[4-(pyridin-4-yl)piperazin-1-yl]hexan-2-yl}-3-(3,5-dibromo-4-hydroxyphenyl)-2-({[4-(2-oxo-1,2,3,4-tetrahydroquinazolin-3-yl)piperidin-1-yl]carbonyl}amino)propanamide

> <IUPAC_TRADITIONAL_NAME>
N-{6-amino-1-oxo-1-[4-(pyridin-4-yl)piperazin-1-yl]hexan-2-yl}-3-(3,5-dibromo-4-hydroxyphenyl)-2-{[4-(2-oxo-1,4-dihydroquinazolin-3-yl)piperidin-1-yl]carbonylamino}propanamide

> <INCHI_IDENTIFIER>
InChI=1S/C38H47Br2N9O5/c39-29-21-25(22-30(40)34(29)50)23-33(45-37(53)48-15-10-28(11-16-48)49-24-26-5-1-2-6-31(26)44-38(49)54)35(51)43-32(7-3-4-12-41)36(52)47-19-17-46(18-20-47)27-8-13-42-14-9-27/h1-2,5-6,8-9,13-14,21-22,28,32-33,50H,3-4,7,10-12,15-20,23-24,41H2,(H,43,51)(H,44,54)(H,45,53)

> <INCHI_KEY>
InChIKey=ITIXDWVDFFXNEG-UHFFFAOYSA-N

> <SMILES>
NCCCCC(NC(=O)C(CC1=CC(Br)=C(O)C(Br)=C1)NC(=O)N1CCC(CC1)N1CC2=CC=CC=C2NC1=O)C(=O)N1CCN(CC1)C1=CC=NC=C1

> <JCHEM_ACCEPTOR_COUNT>
8

> <JCHEM_DONOR_COUNT>
5

> <JCHEM_ACIDIC_PKA>
6.75

> <JCHEM_BASIC_PKA>
10.19

> <JCHEM_PHYSIOLOGICAL_CHARGE>
1

> <ALOGPS_LOGP>
3.08

> <JCHEM_LOGP>
1.62

> <ALOGPS_LOGS>
-4.4

> <JCHEM_POLARIZABILITY>
84.05

> <JCHEM_POLAR_SURFACE_AREA>
176.47

> <JCHEM_REFRACTIVITY>
214.28

> <JCHEM_ROTATABLE_BOND_COUNT>
12

> <ALOGPS_SOLUBILITY>
3.24e-02 g/l __ 

$$$$
