
  Mrv0541 02231217512D          

 20 23  0  0  1  0            999 V2000
    1.3895   -1.8497    0.0000 C   0  0  0  0  0  0  0  0  0  0  0  0
    1.7494   -2.5921    0.0000 C   0  0  2  0  0  0  0  0  0  0  0  0
    2.2812   -1.9614    0.0000 C   0  0  0  0  0  0  0  0  0  0  0  0
    3.0934   -2.1066    0.0000 C   0  0  0  0  0  0  0  0  0  0  0  0
    3.3737   -2.8825    0.0000 C   0  0  2  0  0  0  0  0  0  0  0  0
    4.1858   -3.0277    0.0000 C   0  0  1  0  0  0  0  0  0  0  0  0
    4.7176   -2.3970    0.0000 C   0  0  0  0  0  0  0  0  0  0  0  0
    5.5297   -2.5422    0.0000 C   0  0  0  0  0  0  0  0  0  0  0  0
    5.8100   -3.3182    0.0000 C   0  0  0  0  0  0  0  0  0  0  0  0
    6.6221   -3.4634    0.0000 O   0  0  0  0  0  0  0  0  0  0  0  0
    5.2782   -3.9489    0.0000 C   0  0  0  0  0  0  0  0  0  0  0  0
    4.4661   -3.8037    0.0000 C   0  0  2  0  0  0  0  0  0  0  0  0
    3.9343   -4.4344    0.0000 C   0  0  0  0  0  0  0  0  0  0  0  0
    3.1221   -4.2891    0.0000 C   0  0  0  0  0  0  0  0  0  0  0  0
    2.8418   -3.5132    0.0000 C   0  0  1  0  0  0  0  0  0  0  0  0
    2.0297   -3.3680    0.0000 C   0  0  2  0  0  0  0  0  0  0  0  0
    1.3784   -3.8744    0.0000 C   0  0  0  0  0  0  0  0  0  0  0  0
    0.6955   -3.4114    0.0000 C   0  0  0  0  0  0  0  0  0  0  0  0
    0.9249   -2.6189    0.0000 C   0  0  0  0  0  0  0  0  0  0  0  0
    0.4185   -1.9676    0.0000 O   0  0  0  0  0  0  0  0  0  0  0  0
  2  1  1  6  0  0  0
  2  3  1  0  0  0  0
  3  4  1  0  0  0  0
  5  4  1  6  0  0  0
  5  6  1  0  0  0  0
  6  7  1  1  0  0  0
  7  8  1  0  0  0  0
  8  9  1  0  0  0  0
  9 10  2  0  0  0  0
  9 11  1  0  0  0  0
 11 12  1  0  0  0  0
  6 12  1  0  0  0  0
 12 13  1  6  0  0  0
 13 14  1  0  0  0  0
 15 14  1  1  0  0  0
  5 15  1  0  0  0  0
 15 16  1  0  0  0  0
  2 16  1  0  0  0  0
 16 17  1  6  0  0  0
 17 18  1  0  0  0  0
 18 19  1  0  0  0  0
  2 19  1  0  0  0  0
 19 20  2  0  0  0  0
M  END
> <DRUGBANK_ID>
DB04693

> <DRUG_GROUPS>
experimental

> <GENERIC_NAME>
(13S)-13-METHYLDODECAHYDRO-1H-CYCLOPENTA[A]PHENANTHRENE-3,17(2H,4H)-DIONE

> <CHEMICAL_FORMULA>
C18H26O2

> <MOLECULAR_WEIGHT>
274.3978

> <EXACT_MASS>
274.193280076

> <IUPAC_NAME>
(1R,2S,7S,10R,11S,15S)-15-methyltetracyclo[8.7.0.0^{2,7}.0^{11,15}]heptadecane-5,14-dione

> <IUPAC_TRADITIONAL_NAME>
(1R,2S,7S,10R,11S,15S)-15-methyltetracyclo[8.7.0.0^{2,7}.0^{11,15}]heptadecane-5,14-dione

> <INCHI_IDENTIFIER>
InChI=1S/C18H26O2/c1-18-9-8-14-13-5-3-12(19)10-11(13)2-4-15(14)16(18)6-7-17(18)20/h11,13-16H,2-10H2,1H3/t11-,13-,14+,15+,16-,18-/m0/s1

> <INCHI_KEY>
InChIKey=CRDKSBHJIGNEOH-IMRIKWHGSA-N

> <SMILES>
C[C@]12CC[C@H]3[C@@H](CC[C@H]4CC(=O)CC[C@H]34)[C@@H]1CCC2=O

> <JCHEM_ACCEPTOR_COUNT>
2

> <JCHEM_DONOR_COUNT>
0

> <JCHEM_ACIDIC_PKA>
19.96

> <JCHEM_BASIC_PKA>
-7.1

> <JCHEM_PHYSIOLOGICAL_CHARGE>
0

> <ALOGPS_LOGP>
3.2

> <JCHEM_LOGP>
3.67

> <ALOGPS_LOGS>
-4.5

> <JCHEM_POLARIZABILITY>
32.21

> <JCHEM_POLAR_SURFACE_AREA>
34.14

> <JCHEM_REFRACTIVITY>
78.31

> <JCHEM_ROTATABLE_BOND_COUNT>
0

> <ALOGPS_SOLUBILITY>
8.79e-03 g/l __ 

$$$$
