
  Mrv0541 02231217322D          

 14 15  0  0  1  0            999 V2000
   -0.4752   -1.7084    0.0000 N   0  0  0  0  0  0  0  0  0  0  0  0
    0.0768   -2.3215    0.0000 C   0  0  1  0  0  0  0  0  0  0  0  0
   -0.1781   -3.1062    0.0000 C   0  0  0  0  0  0  0  0  0  0  0  0
   -0.9851   -3.2777    0.0000 O   0  0  0  0  0  0  0  0  0  0  0  0
    0.8838   -2.1500    0.0000 C   0  0  0  0  0  0  0  0  0  0  0  0
    1.1387   -1.3654    0.0000 C   0  0  0  0  0  0  0  0  0  0  0  0
    0.6538   -0.6979    0.0000 C   0  0  0  0  0  0  0  0  0  0  0  0
    1.1387   -0.0305    0.0000 N   0  0  0  0  0  0  0  0  0  0  0  0
    1.9233   -0.2854    0.0000 C   0  0  0  0  0  0  0  0  0  0  0  0
    2.6378    0.1271    0.0000 C   0  0  0  0  0  0  0  0  0  0  0  0
    3.3523   -0.2854    0.0000 C   0  0  0  0  0  0  0  0  0  0  0  0
    3.3523   -1.1104    0.0000 C   0  0  0  0  0  0  0  0  0  0  0  0
    2.6378   -1.5229    0.0000 C   0  0  0  0  0  0  0  0  0  0  0  0
    1.9233   -1.1104    0.0000 C   0  0  0  0  0  0  0  0  0  0  0  0
  2  1  1  6  0  0  0
  2  3  1  0  0  0  0
  3  4  1  0  0  0  0
  2  5  1  0  0  0  0
  5  6  1  0  0  0  0
  6  7  4  0  0  0  0
  7  8  4  0  0  0  0
  8  9  4  0  0  0  0
  9 10  4  0  0  0  0
 10 11  4  0  0  0  0
 11 12  4  0  0  0  0
 12 13  4  0  0  0  0
 13 14  4  0  0  0  0
  6 14  4  0  0  0  0
  9 14  4  0  0  0  0
M  END
> <DRUGBANK_ID>
DB04236

> <DRUG_GROUPS>
experimental

> <GENERIC_NAME>
2-Amino-3-(1h-Indol-3-Yl)-Propan-1-Ol

> <CHEMICAL_FORMULA>
C11H13N2O

> <MOLECULAR_WEIGHT>
189.2337

> <EXACT_MASS>
189.102788048

> <IUPAC_NAME>
(2R)-2-amino-3-(indol-3-yl)propan-1-ol

> <IUPAC_TRADITIONAL_NAME>
(2R)-2-amino-3-(indol-3-yl)propan-1-ol

> <INCHI_IDENTIFIER>
InChI=1S/C11H13N2O/c12-9(7-14)5-8-6-13-11-4-2-1-3-10(8)11/h1-4,6,9,14H,5,7,12H2/t9-/m1/s1

> <INCHI_KEY>
InChIKey=LNCFQEJIKIINLX-SECBINFHSA-N

> <SMILES>
N[C@@H](CO)Cc1cnc2ccccc12

> <JCHEM_ACCEPTOR_COUNT>
3

> <JCHEM_DONOR_COUNT>
2

> <JCHEM_ACIDIC_PKA>
15.12

> <JCHEM_BASIC_PKA>
9.28

> <JCHEM_PHYSIOLOGICAL_CHARGE>
1

> <ALOGPS_LOGP>
0.75

> <JCHEM_LOGP>
0.59

> <ALOGPS_LOGS>
-1.9

> <JCHEM_POLARIZABILITY>
20.63

> <JCHEM_POLAR_SURFACE_AREA>
59.14

> <JCHEM_REFRACTIVITY>
54.83

> <JCHEM_ROTATABLE_BOND_COUNT>
3

> <ALOGPS_SOLUBILITY>
2.13e+00 g/l __ 

$$$$
