
  Mrv0541 02231217312D          

 33 36  0  0  1  0            999 V2000
   -0.1663    8.8675    0.0000 N   0  0  0  0  0  0  0  0  0  0  0  0
    0.3857    8.2544    0.0000 C   0  0  0  0  0  0  0  0  0  0  0  0
    1.1927    8.4260    0.0000 N   0  0  0  0  0  0  0  0  0  0  0  0
    1.7447    7.8129    0.0000 C   0  0  0  0  0  0  0  0  0  0  0  0
    1.4898    7.0282    0.0000 N   0  0  0  0  0  0  0  0  0  0  0  0
    0.6828    6.8567    0.0000 C   0  0  0  0  0  0  0  0  0  0  0  0
    0.1308    7.4698    0.0000 C   0  0  0  0  0  0  0  0  0  0  0  0
   -0.6229    7.1343    0.0000 N   0  0  0  0  0  0  0  0  0  0  0  0
   -0.5366    6.3138    0.0000 C   0  0  0  0  0  0  0  0  0  0  0  0
    0.2703    6.1422    0.0000 N   0  0  0  0  0  0  0  0  0  0  0  0
    0.6059    5.3886    0.0000 C   0  0  2  0  0  0  0  0  0  0  0  0
    1.4129    5.2170    0.0000 O   0  0  0  0  0  0  0  0  0  0  0  0
    1.4991    4.3966    0.0000 C   0  0  1  0  0  0  0  0  0  0  0  0
    2.2136    3.9841    0.0000 C   0  0  0  0  0  0  0  0  0  0  0  0
    2.9280    4.3966    0.0000 O   0  0  0  0  0  0  0  0  0  0  0  0
    3.6425    3.9841    0.0000 P   0  0  1  0  0  0  0  0  0  0  0  0
    3.2300    3.2696    0.0000 O   0  5  0  0  0  0  0  0  0  0  0  0
    4.0550    4.6985    0.0000 O   0  0  0  0  0  0  0  0  0  0  0  0
    4.3570    3.5716    0.0000 O   0  0  0  0  0  0  0  0  0  0  0  0
    5.0714    3.9841    0.0000 C   0  0  0  0  0  0  0  0  0  0  0  0
    5.0714    4.8091    0.0000 O   0  0  0  0  0  0  0  0  0  0  0  0
    5.7859    3.5716    0.0000 C   0  0  2  0  0  0  0  0  0  0  0  0
    5.7859    2.7466    0.0000 N   0  3  0  0  0  0  0  0  0  0  0  0
    6.5004    3.9841    0.0000 C   0  0  0  0  0  0  0  0  0  0  0  0
    7.2149    3.5716    0.0000 C   0  0  0  0  0  0  0  0  0  0  0  0
    7.9685    3.9071    0.0000 C   0  0  0  0  0  0  0  0  0  0  0  0
    8.5206    3.2940    0.0000 N   0  0  0  0  0  0  0  0  0  0  0  0
    8.1081    2.5796    0.0000 C   0  0  0  0  0  0  0  0  0  0  0  0
    7.3011    2.7511    0.0000 N   0  0  0  0  0  0  0  0  0  0  0  0
    0.7454    4.0610    0.0000 C   0  0  2  0  0  0  0  0  0  0  0  0
    0.5739    3.2540    0.0000 O   0  0  0  0  0  0  0  0  0  0  0  0
    0.1934    4.6741    0.0000 C   0  0  1  0  0  0  0  0  0  0  0  0
   -0.6271    4.5879    0.0000 O   0  0  0  0  0  0  0  0  0  0  0  0
  1  2  1  0  0  0  0
  2  3  2  0  0  0  0
  3  4  1  0  0  0  0
  4  5  2  0  0  0  0
  5  6  1  0  0  0  0
  6  7  2  0  0  0  0
  2  7  1  0  0  0  0
  7  8  1  0  0  0  0
  8  9  2  0  0  0  0
  9 10  1  0  0  0  0
  6 10  1  0  0  0  0
 11 10  1  6  0  0  0
 11 12  1  0  0  0  0
 12 13  1  0  0  0  0
 13 14  1  1  0  0  0
 14 15  1  0  0  0  0
 16 15  1  1  0  0  0
 16 17  1  6  0  0  0
 16 18  2  0  0  0  0
 16 19  1  0  0  0  0
 19 20  1  0  0  0  0
 20 21  2  0  0  0  0
 20 22  1  0  0  0  0
 22 23  1  1  0  0  0
 22 24  1  0  0  0  0
 24 25  1  0  0  0  0
 25 26  4  0  0  0  0
 26 27  4  0  0  0  0
 27 28  4  0  0  0  0
 28 29  4  0  0  0  0
 25 29  4  0  0  0  0
 13 30  1  0  0  0  0
 30 31  1  6  0  0  0
 30 32  1  0  0  0  0
 11 32  1  0  0  0  0
 32 33  1  1  0  0  0
M  END
> <DRUGBANK_ID>
DB04201

> <DRUG_GROUPS>
experimental

> <GENERIC_NAME>
Histidyl-Adenosine Monophosphate

> <CHEMICAL_FORMULA>
C16H20N8O8P

> <MOLECULAR_WEIGHT>
483.3526

> <EXACT_MASS>
483.114171168

> <IUPAC_NAME>
(R)-([(2S,3R,4R,5R)-5-(6-amino-9H-purin-9-yl)-3,4-dihydroxyoxolan-2-yl]methyl {[(2R)-2-azaniumyl-3-(imidazol-4-yl)propanoyl]oxy}phosphonate)

> <IUPAC_TRADITIONAL_NAME>
(R)-([(2S,3R,4R,5R)-5-(6-aminopurin-9-yl)-3,4-dihydroxyoxolan-2-yl]methyl [(2R)-2-aminio-3-(imidazol-4-yl)propanoyl]oxyphosphonate)

> <SMILES>
NC1=NC=NC2=C1N=CN2[C@@H]1O[C@@H](CO[P@@]([O-])(=O)OC(=O)[C@H]([NH3+])Cc2cncn2)[C@H](O)[C@H]1O

> <JCHEM_ACCEPTOR_COUNT>
12

> <JCHEM_DONOR_COUNT>
4

> <JCHEM_ACIDIC_PKA>
0.76

> <JCHEM_BASIC_PKA>
6.72

> <JCHEM_PHYSIOLOGICAL_CHARGE>
0

> <ALOGPS_LOGP>
-1.3

> <JCHEM_LOGP>
-4.1

> <ALOGPS_LOGS>
-2.5

> <JCHEM_POLARIZABILITY>
42.76

> <JCHEM_POLAR_SURFACE_AREA>
248.39

> <JCHEM_REFRACTIVITY>
117.61

> <JCHEM_ROTATABLE_BOND_COUNT>
9

> <ALOGPS_SOLUBILITY>
1.57e+00 g/l __ 

$$$$
