
  Mrv0541 02231217522D          

 31 33  0  0  1  0            999 V2000
   -2.1434   -0.4125    0.0000 C   0  0  0  0  0  0  0  0  0  0  0  0
   -2.1434   -1.2375    0.0000 N   0  0  0  0  0  0  0  0  0  0  0  0
   -2.8579   -1.6500    0.0000 C   0  0  2  0  0  0  0  0  0  0  0  0
   -2.8579   -2.4750    0.0000 C   0  0  1  0  0  0  0  0  0  0  0  0
   -2.1434   -2.8875    0.0000 O   0  0  0  0  0  0  0  0  0  0  0  0
   -3.5724   -2.8875    0.0000 C   0  0  2  0  0  0  0  0  0  0  0  0
   -4.2868   -2.4750    0.0000 O   0  0  0  0  0  0  0  0  0  0  0  0
   -4.2868   -1.6500    0.0000 C   0  0  0  0  0  0  0  0  0  0  0  0
   -3.5724   -1.2375    0.0000 C   0  0  1  0  0  0  0  0  0  0  0  0
   -3.9597   -0.5091    0.0000 C   0  0  0  0  0  0  0  0  0  0  0  0
   -3.1850   -0.5091    0.0000 O   0  0  0  0  0  0  0  0  0  0  0  0
   -3.5724   -3.7125    0.0000 O   0  0  0  0  0  0  0  0  0  0  0  0
   -4.2868   -4.1250    0.0000 C   0  0  1  0  0  0  0  0  0  0  0  0
   -5.0013   -3.7125    0.0000 C   0  0  2  0  0  0  0  0  0  0  0  0
   -5.0013   -2.8875    0.0000 N   0  0  0  0  0  0  0  0  0  0  0  0
   -5.7158   -4.1250    0.0000 C   0  0  0  0  0  0  0  0  0  0  0  0
   -5.7158   -4.9500    0.0000 C   0  0  2  0  0  0  0  0  0  0  0  0
   -6.4302   -5.3625    0.0000 N   0  0  0  0  0  0  0  0  0  0  0  0
   -5.0013   -5.3625    0.0000 C   0  0  1  0  0  0  0  0  0  0  0  0
   -5.0013   -6.1875    0.0000 O   0  0  0  0  0  0  0  0  0  0  0  0
   -4.2868   -6.6000    0.0000 C   0  0  1  0  0  0  0  0  0  0  0  0
   -3.5724   -6.1875    0.0000 O   0  0  0  0  0  0  0  0  0  0  0  0
   -2.8579   -6.6000    0.0000 C   0  0  2  0  0  0  0  0  0  0  0  0
   -2.1434   -6.1875    0.0000 C   0  0  0  0  0  0  0  0  0  0  0  0
   -2.1434   -5.3625    0.0000 N   0  0  0  0  0  0  0  0  0  0  0  0
   -2.8579   -7.4250    0.0000 C   0  0  0  0  0  0  0  0  0  0  0  0
   -3.5724   -7.8375    0.0000 C   0  0  0  0  0  0  0  0  0  0  0  0
   -4.2868   -7.4250    0.0000 C   0  0  1  0  0  0  0  0  0  0  0  0
   -5.0013   -7.8375    0.0000 N   0  0  0  0  0  0  0  0  0  0  0  0
   -4.2868   -4.9500    0.0000 C   0  0  2  0  0  0  0  0  0  0  0  0
   -3.5724   -5.3625    0.0000 O   0  0  0  0  0  0  0  0  0  0  0  0
  1  2  1  0  0  0  0
  3  2  1  6  0  0  0
  3  4  1  0  0  0  0
  4  5  1  1  0  0  0
  4  6  1  0  0  0  0
  6  7  1  0  0  0  0
  7  8  1  0  0  0  0
  8  9  1  0  0  0  0
  3  9  1  0  0  0  0
  9 10  1  1  0  0  0
  9 11  1  6  0  0  0
  6 12  1  1  0  0  0
 13 12  1  6  0  0  0
 13 14  1  0  0  0  0
 14 15  1  1  0  0  0
 14 16  1  0  0  0  0
 16 17  1  0  0  0  0
 17 18  1  1  0  0  0
 17 19  1  0  0  0  0
 19 20  1  6  0  0  0
 21 20  1  1  0  0  0
 21 22  1  0  0  0  0
 22 23  1  0  0  0  0
 23 24  1  6  0  0  0
 24 25  1  0  0  0  0
 23 26  1  0  0  0  0
 26 27  1  0  0  0  0
 27 28  1  0  0  0  0
 21 28  1  0  0  0  0
 28 29  1  1  0  0  0
 19 30  1  0  0  0  0
 13 30  1  0  0  0  0
 30 31  1  1  0  0  0
M  END
> <DRUGBANK_ID>
DB04729

> <DRUG_GROUPS>
experimental

> <GENERIC_NAME>
GENTAMICIN C1A

> <CHEMICAL_FORMULA>
C19H39N5O7

> <MOLECULAR_WEIGHT>
449.5423

> <EXACT_MASS>
449.284948627

> <IUPAC_NAME>
(2R,3R,4R,5R)-2-{[(1S,2S,3R,4S,6R)-4,6-diamino-3-{[(2R,3R,6S)-3-amino-6-(aminomethyl)oxan-2-yl]oxy}-2-hydroxycyclohexyl]oxy}-5-methyl-4-(methylamino)oxane-3,5-diol

> <IUPAC_TRADITIONAL_NAME>
gentamicin C1A

> <INCHI_IDENTIFIER>
InChI=1S/C19H39N5O7/c1-19(27)7-28-18(13(26)16(19)24-2)31-15-11(23)5-10(22)14(12(15)25)30-17-9(21)4-3-8(6-20)29-17/h8-18,24-27H,3-7,20-23H2,1-2H3/t8-,9+,10-,11+,12-,13+,14+,15-,16+,17+,18+,19-/m0/s1

> <INCHI_KEY>
InChIKey=VEGXETMJINRLTH-BOZYPMBZSA-N

> <SMILES>
CN[C@@H]1[C@@H](O)[C@@H](O[C@H]2[C@H](N)C[C@H](N)[C@@H](O[C@H]3O[C@H](CN)CC[C@H]3N)[C@@H]2O)OC[C@]1(C)O

> <JCHEM_ACCEPTOR_COUNT>
12

> <JCHEM_DONOR_COUNT>
8

> <JCHEM_ACIDIC_PKA>
12.55

> <JCHEM_BASIC_PKA>
10

> <JCHEM_PHYSIOLOGICAL_CHARGE>
5

> <ALOGPS_LOGP>
-2.2

> <JCHEM_LOGP>
-4

> <ALOGPS_LOGS>
-1.3

> <JCHEM_POLARIZABILITY>
47.46

> <JCHEM_POLAR_SURFACE_AREA>
213.72

> <JCHEM_REFRACTIVITY>
108.83

> <JCHEM_ROTATABLE_BOND_COUNT>
6

> <ALOGPS_SOLUBILITY>
2.05e+01 g/l __ 

$$$$
