HC4
  Mrv0541 02231217232D          

 12 12  0  0  0  0            999 V2000
    1.5326    1.5193    0.0000 C   0  0  0  0  0  0  0  0  0  0  0  0
    1.5326    2.3443    0.0000 O   0  0  0  0  0  0  0  0  0  0  0  0
    2.2471    1.1068    0.0000 O   0  0  0  0  0  0  0  0  0  0  0  0
    0.8181    1.1068    0.0000 C   0  0  0  0  0  0  0  0  0  0  0  0
    0.8181    0.2818    0.0000 C   0  0  0  0  0  0  0  0  0  0  0  0
    0.1037   -0.1307    0.0000 C   0  0  0  0  0  0  0  0  0  0  0  0
    0.1037   -0.9557    0.0000 C   0  0  0  0  0  0  0  0  0  0  0  0
   -0.6108   -1.3682    0.0000 C   0  0  0  0  0  0  0  0  0  0  0  0
   -1.3253   -0.9557    0.0000 C   0  0  0  0  0  0  0  0  0  0  0  0
   -1.3253   -0.1307    0.0000 C   0  0  0  0  0  0  0  0  0  0  0  0
   -0.6108    0.2818    0.0000 C   0  0  0  0  0  0  0  0  0  0  0  0
   -2.0398   -1.3682    0.0000 O   0  0  0  0  0  0  0  0  0  0  0  0
  1  2  2  0  0  0  0
  1  3  1  0  0  0  0
  1  4  1  0  0  0  0
  4  5  2  0  0  0  0
  5  6  1  0  0  0  0
  6  7  2  0  0  0  0
  6 11  1  0  0  0  0
  7  8  1  0  0  0  0
  8  9  2  0  0  0  0
  9 10  1  0  0  0  0
  9 12  1  0  0  0  0
 10 11  2  0  0  0  0
M  END
> <DRUGBANK_ID>
DB04066

> <DRUG_GROUPS>
experimental

> <GENERIC_NAME>
Para-Coumaric Acid

> <CHEMICAL_FORMULA>
C9H8O3

> <MOLECULAR_WEIGHT>
164.158

> <EXACT_MASS>
164.047344122

> <IUPAC_NAME>
(2E)-3-(4-hydroxyphenyl)prop-2-enoic acid

> <IUPAC_TRADITIONAL_NAME>
para-coumaric acid

> <INCHI_IDENTIFIER>
InChI=1S/C9H8O3/c10-8-4-1-7(2-5-8)3-6-9(11)12/h1-6,10H,(H,11,12)/b6-3+

> <INCHI_KEY>
InChIKey=NGSWKAQJJWESNS-ZZXKWVIFSA-N

> <SMILES>
OC(=O)\C=C\C1=CC=C(O)C=C1

> <JCHEM_ACCEPTOR_COUNT>
3

> <JCHEM_DONOR_COUNT>
2

> <JCHEM_ACIDIC_PKA>
4

> <JCHEM_BASIC_PKA>
-6

> <JCHEM_PHYSIOLOGICAL_CHARGE>
-1

> <ALOGPS_LOGP>
1.74

> <JCHEM_LOGP>
1.83

> <ALOGPS_LOGS>
-2.2

> <JCHEM_POLARIZABILITY>
16.43

> <JCHEM_POLAR_SURFACE_AREA>
57.53

> <JCHEM_REFRACTIVITY>
45.04

> <JCHEM_ROTATABLE_BOND_COUNT>
2

> <ALOGPS_SOLUBILITY>
1.02e+00 g/l __ 

$$$$
