
  Mrv0541 02231217212D          

 34 39  0  0  0  0            999 V2000
    7.8475    6.9123    0.0000 C   0  0  0  0  0  0  0  0  0  0  0  0
    7.4350    6.1978    0.0000 N   0  0  0  0  0  0  0  0  0  0  0  0
    7.8475    5.4834    0.0000 C   0  0  0  0  0  0  0  0  0  0  0  0
    7.4350    4.7689    0.0000 C   0  0  0  0  0  0  0  0  0  0  0  0
    6.6100    4.7689    0.0000 N   0  0  0  0  0  0  0  0  0  0  0  0
    6.1975    5.4834    0.0000 C   0  0  0  0  0  0  0  0  0  0  0  0
    6.6100    6.1978    0.0000 C   0  0  0  0  0  0  0  0  0  0  0  0
    6.1975    4.0544    0.0000 C   0  0  0  0  0  0  0  0  0  0  0  0
    6.6100    3.3400    0.0000 C   0  0  0  0  0  0  0  0  0  0  0  0
    6.1975    2.6255    0.0000 C   0  0  0  0  0  0  0  0  0  0  0  0
    5.3725    2.6255    0.0000 C   0  0  0  0  0  0  0  0  0  0  0  0
    4.8204    2.0124    0.0000 N   0  0  0  0  0  0  0  0  0  0  0  0
    4.0668    2.3479    0.0000 C   0  0  0  0  0  0  0  0  0  0  0  0
    4.1530    3.1684    0.0000 N   0  0  0  0  0  0  0  0  0  0  0  0
    4.9600    3.3400    0.0000 C   0  0  0  0  0  0  0  0  0  0  0  0
    5.3725    4.0544    0.0000 C   0  0  0  0  0  0  0  0  0  0  0  0
    3.3523    1.9354    0.0000 C   0  0  0  0  0  0  0  0  0  0  0  0
    3.3523    1.1104    0.0000 C   0  0  0  0  0  0  0  0  0  0  0  0
    2.6378    0.6979    0.0000 C   0  0  0  0  0  0  0  0  0  0  0  0
    1.9233    1.1104    0.0000 C   0  0  0  0  0  0  0  0  0  0  0  0
    1.1387    0.8555    0.0000 N   0  0  0  0  0  0  0  0  0  0  0  0
    0.6538    1.5229    0.0000 C   0  0  0  0  0  0  0  0  0  0  0  0
    1.1387    2.1904    0.0000 N   0  0  0  0  0  0  0  0  0  0  0  0
    1.9233    1.9354    0.0000 C   0  0  0  0  0  0  0  0  0  0  0  0
    2.6378    2.3479    0.0000 C   0  0  0  0  0  0  0  0  0  0  0  0
   -0.1712    1.5229    0.0000 C   0  0  0  0  0  0  0  0  0  0  0  0
   -0.5837    0.8085    0.0000 C   0  0  0  0  0  0  0  0  0  0  0  0
   -1.4087    0.8085    0.0000 C   0  0  0  0  0  0  0  0  0  0  0  0
   -1.8212    1.5229    0.0000 C   0  0  0  0  0  0  0  0  0  0  0  0
   -1.4087    2.2374    0.0000 C   0  0  0  0  0  0  0  0  0  0  0  0
   -0.5837    2.2374    0.0000 C   0  0  0  0  0  0  0  0  0  0  0  0
   -2.6462    1.5229    0.0000 N   0  0  0  0  0  0  0  0  0  0  0  0
   -3.0587    0.8085    0.0000 C   0  0  0  0  0  0  0  0  0  0  0  0
   -3.0587    2.2374    0.0000 C   0  0  0  0  0  0  0  0  0  0  0  0
  1  2  1  0  0  0  0
  2  3  1  0  0  0  0
  3  4  1  0  0  0  0
  4  5  1  0  0  0  0
  5  6  1  0  0  0  0
  6  7  1  0  0  0  0
  2  7  1  0  0  0  0
  5  8  1  0  0  0  0
  8  9  4  0  0  0  0
  9 10  4  0  0  0  0
 10 11  4  0  0  0  0
 11 12  4  0  0  0  0
 12 13  4  0  0  0  0
 13 14  4  0  0  0  0
 14 15  4  0  0  0  0
 11 15  4  0  0  0  0
 15 16  4  0  0  0  0
  8 16  4  0  0  0  0
 13 17  1  0  0  0  0
 17 18  4  0  0  0  0
 18 19  4  0  0  0  0
 19 20  4  0  0  0  0
 20 21  4  0  0  0  0
 21 22  4  0  0  0  0
 22 23  4  0  0  0  0
 23 24  4  0  0  0  0
 20 24  4  0  0  0  0
 24 25  4  0  0  0  0
 17 25  4  0  0  0  0
 22 26  1  0  0  0  0
 26 27  2  0  0  0  0
 27 28  1  0  0  0  0
 28 29  2  0  0  0  0
 29 30  1  0  0  0  0
 30 31  2  0  0  0  0
 26 31  1  0  0  0  0
 29 32  1  0  0  0  0
 32 33  1  0  0  0  0
 32 34  1  0  0  0  0
M  END
> <DRUGBANK_ID>
DB04011

> <DRUG_GROUPS>
experimental

> <GENERIC_NAME>
2'-(4-Dimethylaminophenyl)-5-(4-Methyl-1-Piperazinyl)-2,5'-Bi-Benzimidazole

> <CHEMICAL_FORMULA>
C27H27N7

> <MOLECULAR_WEIGHT>
449.5502

> <EXACT_MASS>
449.232793899

> <IUPAC_NAME>
N,N-dimethyl-4-{5-[5-(4-methylpiperazin-1-yl)-1,3-benzodiazol-2-yl]-1,3-benzodiazol-2-yl}aniline

> <IUPAC_TRADITIONAL_NAME>
N,N-dimethyl-4-{5-[5-(4-methylpiperazin-1-yl)-1,3-benzodiazol-2-yl]-1,3-benzodiazol-2-yl}aniline

> <SMILES>
CN(C)C1=CC=C(C=C1)c1nc2ccc(cc2n1)-c1nc2ccc(cc2n1)N1CCN(C)CC1

> <JCHEM_ACCEPTOR_COUNT>
7

> <JCHEM_DONOR_COUNT>
0

> <JCHEM_BASIC_PKA>
7.79

> <JCHEM_PHYSIOLOGICAL_CHARGE>
1

> <ALOGPS_LOGP>
4.71

> <JCHEM_LOGP>
5.95

> <ALOGPS_LOGS>
-4.3

> <JCHEM_POLARIZABILITY>
54.93

> <JCHEM_POLAR_SURFACE_AREA>
61.28

> <JCHEM_REFRACTIVITY>
157.84

> <JCHEM_ROTATABLE_BOND_COUNT>
4

> <ALOGPS_SOLUBILITY>
2.50e-02 g/l __ 

$$$$
