CCB
  Mrv0541 02231217232D          

 12 13  0  0  0  0            999 V2000
    0.7488    0.1438    0.0000 N   0  0  0  0  0  0  0  0  0  0  0  0
    1.4633    0.5563    0.0000 C   0  0  0  0  0  0  0  0  0  0  0  0
    2.1777    0.1438    0.0000 O   0  0  0  0  0  0  0  0  0  0  0  0
    0.0343    0.5563    0.0000 C   0  0  0  0  0  0  0  0  0  0  0  0
    0.7488   -0.6812    0.0000 C   0  0  0  0  0  0  0  0  0  0  0  0
   -0.7194    0.2207    0.0000 C   0  0  0  0  0  0  0  0  0  0  0  0
   -1.2714    0.8338    0.0000 C   0  0  0  0  0  0  0  0  0  0  0  0
   -0.8589    1.5483    0.0000 C   0  0  0  0  0  0  0  0  0  0  0  0
   -0.0519    1.3768    0.0000 C   0  0  0  0  0  0  0  0  0  0  0  0
    1.3321   -1.2646    0.0000 C   0  0  0  0  0  0  0  0  0  0  0  0
    0.7488   -1.8479    0.0000 C   0  0  0  0  0  0  0  0  0  0  0  0
    0.1654   -1.2646    0.0000 C   0  0  0  0  0  0  0  0  0  0  0  0
  1  2  1  0  0  0  0
  1  4  1  0  0  0  0
  1  5  1  0  0  0  0
  2  3  2  0  0  0  0
  4  6  1  0  0  0  0
  4  9  1  0  0  0  0
  5 10  1  0  0  0  0
  5 12  1  0  0  0  0
  6  7  1  0  0  0  0
  7  8  1  0  0  0  0
  8  9  1  0  0  0  0
 10 11  1  0  0  0  0
 11 12  1  0  0  0  0
M  END
> <DRUGBANK_ID>
DB04065

> <DRUG_GROUPS>
experimental

> <GENERIC_NAME>
N-Cyclopentyl-N-Cyclobutylformamide

> <CHEMICAL_FORMULA>
C10H17NO

> <MOLECULAR_WEIGHT>
167.2481

> <EXACT_MASS>
167.131014171

> <IUPAC_NAME>
N-cyclobutyl-N-cyclopentylformamide

> <IUPAC_TRADITIONAL_NAME>
N-cyclobutyl-N-cyclopentylformamide

> <INCHI_IDENTIFIER>
InChI=1S/C10H17NO/c12-8-11(10-6-3-7-10)9-4-1-2-5-9/h8-10H,1-7H2

> <INCHI_KEY>
InChIKey=DWGVYBRKKSJLNS-UHFFFAOYSA-N

> <SMILES>
O=CN(C1CCC1)C1CCCC1

> <JCHEM_ACCEPTOR_COUNT>
1

> <JCHEM_DONOR_COUNT>
0

> <JCHEM_BASIC_PKA>
0.93

> <JCHEM_PHYSIOLOGICAL_CHARGE>
0

> <ALOGPS_LOGP>
2.14

> <JCHEM_LOGP>
1.63

> <ALOGPS_LOGS>
-1.4

> <JCHEM_POLARIZABILITY>
19.46

> <JCHEM_POLAR_SURFACE_AREA>
20.31

> <JCHEM_REFRACTIVITY>
47.99

> <JCHEM_ROTATABLE_BOND_COUNT>
2

> <ALOGPS_SOLUBILITY>
6.45e+00 g/l __ 

$$$$
