K25
  Mrv0541 02231217522D          

 16 17  0  0  0  0            999 V2000
    3.5420    0.5302    0.0000 C    0  0  0  0  0  0  0  0  0  0  0  0
    3.5420   -0.2948    0.0000 C    0  0  0  0  0  0  0  0  0  0  0  0
    2.8275   -0.7073    0.0000 C    0  0  0  0  0  0  0  0  0  0  0  0
    2.8275    0.9427    0.0000 C    0  0  0  0  0  0  0  0  0  0  0  0
    1.3284   -0.5497    0.0000 N    0  0  0  0  0  0  0  0  0  0  0  0
    2.1130    0.5302    0.0000 C    0  0  0  0  0  0  0  0  0  0  0  0
    2.1130   -0.2948    0.0000 C    0  0  0  0  0  0  0  0  0  0  0  0
    0.8435    0.1177    0.0000 C    0  0  0  0  0  0  0  0  0  0  0  0
    1.3284    0.7851    0.0000 N    0  0  0  0  0  0  0  0  0  0  0  0
    0.0185    0.1177    0.0000 N    0  0  0  0  0  0  0  0  0  0  0  0
   -0.3940   -0.5968    0.0000 C    0  0  0  0  0  0  0  0  0  0  0  0
   -0.3940    0.8322    0.0000 C    0  0  0  0  0  0  0  0  0  0  0  0
    4.2564    0.9427    0.0000 Br   0  0  0  0  0  0  0  0  0  0  0  0
    4.2564   -0.7073    0.0000 Br   0  0  0  0  0  0  0  0  0  0  0  0
    2.8275   -1.5323    0.0000 Br   0  0  0  0  0  0  0  0  0  0  0  0
    2.8275    1.7677    0.0000 Br   0  0  0  0  0  0  0  0  0  0  0  0
  1  2  2  0  0  0  0
  1  4  1  0  0  0  0
  1 13  1  0  0  0  0
  2  3  1  0  0  0  0
  2 14  1  0  0  0  0
  3  7  2  0  0  0  0
  3 15  1  0  0  0  0
  4  6  2  0  0  0  0
  4 16  1  0  0  0  0
  5  7  1  0  0  0  0
  5  8  1  0  0  0  0
  6  7  1  0  0  0  0
  6  9  1  0  0  0  0
  8  9  2  0  0  0  0
  8 10  1  0  0  0  0
 10 11  1  0  0  0  0
 10 12  1  0  0  0  0
M  END
> <DRUGBANK_ID>
DB04719

> <DRUG_GROUPS>
experimental

> <GENERIC_NAME>
DIMETHYL-(4,5,6,7-TETRABROMO-1H-BENZOIMIDAZOL-2-YL)-AMINE

> <CHEMICAL_FORMULA>
C9H7Br4N3

> <MOLECULAR_WEIGHT>
476.788

> <EXACT_MASS>
472.737347827

> <IUPAC_NAME>
4,5,6,7-tetrabromo-N,N-dimethyl-1H-1,3-benzodiazol-2-amine

> <IUPAC_TRADITIONAL_NAME>
4,5,6,7-tetrabromo-N,N-dimethyl-1H-1,3-benzodiazol-2-amine

> <INCHI_IDENTIFIER>
InChI=1S/C9H7Br4N3/c1-16(2)9-14-7-5(12)3(10)4(11)6(13)8(7)15-9/h1-2H3,(H,14,15)

> <INCHI_KEY>
InChIKey=SLPJGDQJLTYWCI-UHFFFAOYSA-N

> <SMILES>
CN(C)C1=NC2=C(Br)C(Br)=C(Br)C(Br)=C2N1

> <JCHEM_ACCEPTOR_COUNT>
2

> <JCHEM_DONOR_COUNT>
1

> <JCHEM_ACIDIC_PKA>
10.77

> <JCHEM_BASIC_PKA>
5

> <JCHEM_PHYSIOLOGICAL_CHARGE>
0

> <ALOGPS_LOGP>
4.52

> <JCHEM_LOGP>
5.13

> <ALOGPS_LOGS>
-4.9

> <JCHEM_POLARIZABILITY>
31.53

> <JCHEM_POLAR_SURFACE_AREA>
31.92

> <JCHEM_REFRACTIVITY>
79.36

> <JCHEM_ROTATABLE_BOND_COUNT>
1

> <ALOGPS_SOLUBILITY>
5.65e-03 g/l __ 

$$$$
