
  Mrv0541 02231217312D          

 21 21  0  0  1  0            999 V2000
    3.5724    1.2375    0.0000 C   0  0  0  0  0  0  0  0  0  0  0  0
    2.8579    0.8250    0.0000 C   0  0  0  0  0  0  0  0  0  0  0  0
    2.8579    0.0000    0.0000 O   0  0  0  0  0  0  0  0  0  0  0  0
    2.1434    1.2375    0.0000 N   0  0  0  0  0  0  0  0  0  0  0  0
    1.4289    0.8250    0.0000 C   0  0  1  0  0  0  0  0  0  0  0  0
    1.4289    0.0000    0.0000 C   0  0  2  0  0  0  0  0  0  0  0  0
    2.1434   -0.4125    0.0000 O   0  0  0  0  0  0  0  0  0  0  0  0
    0.7145   -0.4125    0.0000 C   0  0  1  0  0  0  0  0  0  0  0  0
    0.7145   -1.2375    0.0000 F   0  0  0  0  0  0  0  0  0  0  0  0
    0.0000    0.0000    0.0000 C   0  0  1  0  0  0  0  0  0  0  0  0
    0.0000    0.8250    0.0000 O   0  0  0  0  0  0  0  0  0  0  0  0
    0.7145    1.2375    0.0000 C   0  0  1  0  0  0  0  0  0  0  0  0
    0.7145    2.0625    0.0000 C   0  0  2  0  0  0  0  0  0  0  0  0
    1.4289    2.4750    0.0000 O   0  0  0  0  0  0  0  0  0  0  0  0
    0.0000    2.4750    0.0000 C   0  0  1  0  0  0  0  0  0  0  0  0
   -0.7145    2.0625    0.0000 O   0  0  0  0  0  0  0  0  0  0  0  0
    0.0000    3.3000    0.0000 C   0  0  0  0  0  0  0  0  0  0  0  0
   -0.7145    3.7125    0.0000 O   0  0  0  0  0  0  0  0  0  0  0  0
   -0.7145   -0.4125    0.0000 C   0  0  0  0  0  0  0  0  0  0  0  0
   -1.4289    0.0000    0.0000 O   0  0  0  0  0  0  0  0  0  0  0  0
   -0.7145   -1.2375    0.0000 O   0  0  0  0  0  0  0  0  0  0  0  0
  1  2  1  0  0  0  0
  2  3  2  0  0  0  0
  2  4  1  0  0  0  0
  5  4  1  1  0  0  0
  5  6  1  0  0  0  0
  6  7  1  6  0  0  0
  6  8  1  0  0  0  0
  8  9  1  1  0  0  0
  8 10  1  0  0  0  0
 10 11  1  0  0  0  0
 11 12  1  0  0  0  0
  5 12  1  0  0  0  0
 12 13  1  1  0  0  0
 13 14  1  1  0  0  0
 13 15  1  0  0  0  0
 15 16  1  1  0  0  0
 15 17  1  0  0  0  0
 17 18  1  0  0  0  0
 10 19  1  6  0  0  0
 19 20  1  0  0  0  0
 19 21  2  0  0  0  0
M  END
> <DRUGBANK_ID>
DB04211

> <DRUG_GROUPS>
experimental

> <GENERIC_NAME>
3-Fluorosialic Acid

> <CHEMICAL_FORMULA>
C11H18FNO8

> <MOLECULAR_WEIGHT>
311.2609

> <EXACT_MASS>
311.101644762

> <IUPAC_NAME>
(2S,3R,4S,5S,6R)-5-acetamido-3-fluoro-4-hydroxy-6-[(1R,2S)-1,2,3-trihydroxypropyl]oxane-2-carboxylic acid

> <IUPAC_TRADITIONAL_NAME>
3-fluorosialic acid

> <INCHI_IDENTIFIER>
InChI=1S/C11H18FNO8/c1-3(15)13-6-8(18)5(12)9(11(19)20)21-10(6)7(17)4(16)2-14/h4-10,14,16-18H,2H2,1H3,(H,13,15)(H,19,20)/t4-,5+,6-,7+,8+,9+,10+/m0/s1

> <INCHI_KEY>
InChIKey=ZQJAHJWWLQMSQT-GEFQIMLOSA-N

> <SMILES>
CC(=O)N[C@H]1[C@H](O)[C@@H](F)[C@@H](O[C@H]1[C@H](O)[C@@H](O)CO)C(O)=O

> <JCHEM_ACCEPTOR_COUNT>
8

> <JCHEM_DONOR_COUNT>
6

> <JCHEM_ACIDIC_PKA>
3.69

> <JCHEM_BASIC_PKA>
-0.38

> <JCHEM_PHYSIOLOGICAL_CHARGE>
-1

> <ALOGPS_LOGP>
-1.8

> <JCHEM_LOGP>
-3.5

> <ALOGPS_LOGS>
-0.57

> <JCHEM_POLARIZABILITY>
27.5

> <JCHEM_POLAR_SURFACE_AREA>
156.55

> <JCHEM_REFRACTIVITY>
62.06

> <JCHEM_ROTATABLE_BOND_COUNT>
5

> <ALOGPS_SOLUBILITY>
8.33e+01 g/l __ 

$$$$
