
  Mrv0541 02231217402D          

 34 36  0  0  1  0            999 V2000
   -1.4289   -6.3789    0.0000 C   0  0  0  0  0  0  0  0  0  0  0  0
   -1.0164   -5.6645    0.0000 O   0  0  0  0  0  0  0  0  0  0  0  0
   -1.4289   -4.9500    0.0000 C   0  0  0  0  0  0  0  0  0  0  0  0
   -2.2539   -4.9500    0.0000 O   0  0  0  0  0  0  0  0  0  0  0  0
   -1.0164   -4.2355    0.0000 C   0  0  2  0  0  0  0  0  0  0  0  0
   -1.4289   -3.5211    0.0000 C   0  0  0  0  0  0  0  0  0  0  0  0
   -2.2539   -3.5211    0.0000 C   0  0  0  0  0  0  0  0  0  0  0  0
   -2.6664   -4.2355    0.0000 C   0  0  0  0  0  0  0  0  0  0  0  0
   -3.4914   -4.2355    0.0000 C   0  0  0  0  0  0  0  0  0  0  0  0
   -3.9039   -3.5211    0.0000 C   0  0  0  0  0  0  0  0  0  0  0  0
   -3.4914   -2.8066    0.0000 C   0  0  0  0  0  0  0  0  0  0  0  0
   -2.6664   -2.8066    0.0000 C   0  0  0  0  0  0  0  0  0  0  0  0
   -3.9039   -2.0921    0.0000 C   0  0  0  0  0  0  0  0  0  0  0  0
   -4.7289   -2.0921    0.0000 N   0  0  0  0  0  0  0  0  0  0  0  0
   -3.4914   -1.3776    0.0000 N   0  0  0  0  0  0  0  0  0  0  0  0
   -0.1914   -4.2355    0.0000 C   0  0  1  0  0  0  0  0  0  0  0  0
    0.2211   -3.5211    0.0000 C   0  0  0  0  0  0  0  0  0  0  0  0
    0.2211   -4.9500    0.0000 N   0  0  0  0  0  0  0  0  0  0  0  0
    1.0461   -4.9500    0.0000 C   0  0  0  0  0  0  0  0  0  0  0  0
    1.4586   -5.6645    0.0000 O   0  0  0  0  0  0  0  0  0  0  0  0
    1.4586   -4.2355    0.0000 C   0  0  0  0  0  0  0  0  0  0  0  0
    1.0461   -3.5211    0.0000 C   0  0  0  0  0  0  0  0  0  0  0  0
    1.4586   -2.8066    0.0000 C   0  0  0  0  0  0  0  0  0  0  0  0
    2.2836   -2.8066    0.0000 C   0  0  0  0  0  0  0  0  0  0  0  0
    2.6961   -3.5211    0.0000 C   0  0  0  0  0  0  0  0  0  0  0  0
    2.2836   -4.2355    0.0000 C   0  0  0  0  0  0  0  0  0  0  0  0
    2.6961   -2.0921    0.0000 C   0  0  0  0  0  0  0  0  0  0  0  0
    2.2836   -1.3776    0.0000 C   0  0  0  0  0  0  0  0  0  0  0  0
    2.6961   -0.6632    0.0000 C   0  0  0  0  0  0  0  0  0  0  0  0
    3.5211   -0.6632    0.0000 C   0  0  0  0  0  0  0  0  0  0  0  0
    3.9336   -1.3776    0.0000 C   0  0  0  0  0  0  0  0  0  0  0  0
    4.7586   -1.3776    0.0000 C   0  0  0  0  0  0  0  0  0  0  0  0
    5.1711   -0.6632    0.0000 N   0  0  0  0  0  0  0  0  0  0  0  0
    3.5211   -2.0921    0.0000 C   0  0  0  0  0  0  0  0  0  0  0  0
  1  2  1  0  0  0  0
  2  3  1  0  0  0  0
  3  4  2  0  0  0  0
  3  5  1  0  0  0  0
  5  6  1  6  0  0  0
  6  7  1  0  0  0  0
  7  8  2  0  0  0  0
  8  9  1  0  0  0  0
  9 10  2  0  0  0  0
 10 11  1  0  0  0  0
 11 12  2  0  0  0  0
  7 12  1  0  0  0  0
 11 13  1  0  0  0  0
 13 14  1  0  0  0  0
 13 15  2  0  0  0  0
  5 16  1  0  0  0  0
 16 17  1  1  0  0  0
 16 18  1  0  0  0  0
 18 19  1  0  0  0  0
 19 20  2  0  0  0  0
 19 21  1  0  0  0  0
 21 22  2  0  0  0  0
 22 23  1  0  0  0  0
 23 24  2  0  0  0  0
 24 25  1  0  0  0  0
 25 26  2  0  0  0  0
 21 26  1  0  0  0  0
 24 27  1  0  0  0  0
 27 28  2  0  0  0  0
 28 29  1  0  0  0  0
 29 30  2  0  0  0  0
 30 31  1  0  0  0  0
 31 32  1  0  0  0  0
 32 33  1  0  0  0  0
 31 34  2  0  0  0  0
 27 34  1  0  0  0  0
M  END
> <DRUGBANK_ID>
DB04424

> <DRUG_GROUPS>
experimental

> <GENERIC_NAME>
RPR128515

> <CHEMICAL_FORMULA>
C27H30N4O3

> <MOLECULAR_WEIGHT>
458.5521

> <EXACT_MASS>
458.231790846

> <IUPAC_NAME>
methyl (2R,3R)-3-({4-[3-(aminomethyl)phenyl]phenyl}formamido)-2-[(3-carbamimidoylphenyl)methyl]butanoate

> <IUPAC_TRADITIONAL_NAME>
methyl (2R,3R)-3-({4-[3-(aminomethyl)phenyl]phenyl}formamido)-2-[(3-carbamimidoylphenyl)methyl]butanoate

> <INCHI_IDENTIFIER>
InChI=1S/C27H30N4O3/c1-17(24(27(33)34-2)15-18-5-3-8-23(13-18)25(29)30)31-26(32)21-11-9-20(10-12-21)22-7-4-6-19(14-22)16-28/h3-14,17,24H,15-16,28H2,1-2H3,(H3,29,30)(H,31,32)/t17-,24-/m1/s1

> <INCHI_KEY>
InChIKey=XFKVLKLCLYJKNF-MZNJEOGPSA-N

> <SMILES>
COC(=O)[C@H](CC1=CC=CC(=C1)C(N)=N)[C@@H](C)NC(=O)C1=CC=C(C=C1)C1=CC=CC(CN)=C1

> <JCHEM_ACCEPTOR_COUNT>
5

> <JCHEM_DONOR_COUNT>
4

> <JCHEM_ACIDIC_PKA>
15

> <JCHEM_BASIC_PKA>
11.46

> <JCHEM_PHYSIOLOGICAL_CHARGE>
2

> <ALOGPS_LOGP>
2.92

> <JCHEM_LOGP>
3.14

> <ALOGPS_LOGS>
-5.5

> <JCHEM_POLARIZABILITY>
51.49

> <JCHEM_POLAR_SURFACE_AREA>
131.29

> <JCHEM_REFRACTIVITY>
144.56

> <JCHEM_ROTATABLE_BOND_COUNT>
10

> <ALOGPS_SOLUBILITY>
1.58e-03 g/l __ 

$$$$
