
  Mrv0541 02231217222D          

 55 57  0  0  1  0            999 V2000
  -16.1885    5.7253    0.0000 C   0  0  0  0  0  0  0  0  0  0  0  0
  -16.2361    4.9017    0.0000 C   0  0  2  0  0  0  0  0  0  0  0  0
  -16.9731    4.5311    0.0000 C   0  0  0  0  0  0  0  0  0  0  0  0
  -17.6626    4.9841    0.0000 O   0  0  0  0  0  0  0  0  0  0  0  0
  -17.0207    3.7075    0.0000 O   0  0  0  0  0  0  0  0  0  0  0  0
  -15.5466    4.4487    0.0000 C   0  0  0  0  0  0  0  0  0  0  0  0
  -15.5941    3.6251    0.0000 O   0  0  0  0  0  0  0  0  0  0  0  0
  -14.8095    4.8193    0.0000 S   0  0  0  0  0  0  0  0  0  0  0  0
  -14.1200    4.3664    0.0000 C   0  0  0  0  0  0  0  0  0  0  0  0
  -13.3829    4.7370    0.0000 C   0  0  0  0  0  0  0  0  0  0  0  0
  -12.6934    4.2840    0.0000 N   0  0  0  0  0  0  0  0  0  0  0  0
  -11.9564    4.6546    0.0000 C   0  0  0  0  0  0  0  0  0  0  0  0
  -11.9088    5.4783    0.0000 O   0  0  0  0  0  0  0  0  0  0  0  0
  -11.2669    4.2016    0.0000 C   0  0  0  0  0  0  0  0  0  0  0  0
  -10.5298    4.5723    0.0000 C   0  0  0  0  0  0  0  0  0  0  0  0
   -9.8403    4.1193    0.0000 N   0  0  0  0  0  0  0  0  0  0  0  0
   -9.1032    4.4899    0.0000 C   0  0  0  0  0  0  0  0  0  0  0  0
   -9.0557    5.3135    0.0000 O   0  0  0  0  0  0  0  0  0  0  0  0
   -8.4137    4.0369    0.0000 C   0  0  1  0  0  0  0  0  0  0  0  0
   -8.4613    3.2133    0.0000 O   0  0  0  0  0  0  0  0  0  0  0  0
   -7.6767    4.4075    0.0000 C   0  0  0  0  0  0  0  0  0  0  0  0
   -7.3060    3.6705    0.0000 C   0  0  0  0  0  0  0  0  0  0  0  0
   -8.0473    5.1446    0.0000 C   0  0  0  0  0  0  0  0  0  0  0  0
   -6.9396    4.7782    0.0000 C   0  0  0  0  0  0  0  0  0  0  0  0
   -6.2501    4.3252    0.0000 O   0  0  0  0  0  0  0  0  0  0  0  0
   -5.5130    4.6958    0.0000 P   0  0  2  0  0  0  0  0  0  0  0  0
   -5.1424    3.9587    0.0000 O   0  0  0  0  0  0  0  0  0  0  0  0
   -5.8837    5.4329    0.0000 O   0  0  0  0  0  0  0  0  0  0  0  0
   -4.7760    5.0664    0.0000 O   0  0  0  0  0  0  0  0  0  0  0  0
   -4.0865    4.6134    0.0000 P   0  0  1  0  0  0  0  0  0  0  0  0
   -4.5395    3.9239    0.0000 O   0  0  0  0  0  0  0  0  0  0  0  0
   -3.6335    5.3029    0.0000 O   0  0  0  0  0  0  0  0  0  0  0  0
   -3.3970    4.1604    0.0000 O   0  0  0  0  0  0  0  0  0  0  0  0
   -2.6599    4.5311    0.0000 C   0  0  0  0  0  0  0  0  0  0  0  0
   -1.9704    4.0781    0.0000 C   0  0  2  0  0  0  0  0  0  0  0  0
   -1.1986    4.3696    0.0000 O   0  0  0  0  0  0  0  0  0  0  0  0
   -0.6829    3.7257    0.0000 C   0  0  2  0  0  0  0  0  0  0  0  0
   -1.1359    3.0362    0.0000 C   0  0  2  0  0  0  0  0  0  0  0  0
   -0.8443    2.2645    0.0000 O   0  0  0  0  0  0  0  0  0  0  0  0
   -1.9316    3.2540    0.0000 C   0  0  1  0  0  0  0  0  0  0  0  0
   -2.5755    2.7382    0.0000 O   0  0  0  0  0  0  0  0  0  0  0  0
   -3.3441    3.0380    0.0000 P   0  0  0  0  0  0  0  0  0  0  0  0
   -3.0444    3.8066    0.0000 O   0  0  0  0  0  0  0  0  0  0  0  0
   -3.6439    2.2693    0.0000 O   0  0  0  0  0  0  0  0  0  0  0  0
   -4.1127    3.3377    0.0000 O   0  0  0  0  0  0  0  0  0  0  0  0
    0.1412    3.7645    0.0000 N   0  0  0  0  0  0  0  0  0  0  0  0
    0.6570    3.1207    0.0000 C   0  0  0  0  0  0  0  0  0  0  0  0
    1.4288    3.4122    0.0000 N   0  0  0  0  0  0  0  0  0  0  0  0
    1.3900    4.2363    0.0000 C   0  0  0  0  0  0  0  0  0  0  0  0
    0.5942    4.4541    0.0000 C   0  0  0  0  0  0  0  0  0  0  0  0
    0.3849    5.2521    0.0000 N   0  0  0  0  0  0  0  0  0  0  0  0
    0.9714    5.8323    0.0000 C   0  0  0  0  0  0  0  0  0  0  0  0
    1.7671    5.6146    0.0000 N   0  0  0  0  0  0  0  0  0  0  0  0
    1.9764    4.8166    0.0000 C   0  0  0  0  0  0  0  0  0  0  0  0
    2.7722    4.5988    0.0000 N   0  0  0  0  0  0  0  0  0  0  0  0
  2  1  1  1  0  0  0
  2  3  1  0  0  0  0
  3  4  1  0  0  0  0
  3  5  2  0  0  0  0
  2  6  1  0  0  0  0
  6  7  2  0  0  0  0
  6  8  1  0  0  0  0
  8  9  1  0  0  0  0
  9 10  1  0  0  0  0
 10 11  1  0  0  0  0
 11 12  1  0  0  0  0
 12 13  2  0  0  0  0
 12 14  1  0  0  0  0
 14 15  1  0  0  0  0
 15 16  1  0  0  0  0
 16 17  1  0  0  0  0
 17 18  2  0  0  0  0
 17 19  1  0  0  0  0
 19 20  1  6  0  0  0
 19 21  1  0  0  0  0
 21 22  1  0  0  0  0
 21 23  1  0  0  0  0
 21 24  1  0  0  0  0
 24 25  1  0  0  0  0
 26 25  1  6  0  0  0
 26 27  1  1  0  0  0
 26 28  2  0  0  0  0
 26 29  1  0  0  0  0
 30 29  1  1  0  0  0
 30 31  1  6  0  0  0
 30 32  2  0  0  0  0
 30 33  1  0  0  0  0
 33 34  1  0  0  0  0
 35 34  1  6  0  0  0
 35 36  1  0  0  0  0
 36 37  1  0  0  0  0
 37 38  1  0  0  0  0
 38 39  1  6  0  0  0
 38 40  1  0  0  0  0
 35 40  1  0  0  0  0
 40 41  1  1  0  0  0
 41 42  1  0  0  0  0
 42 43  1  0  0  0  0
 42 44  1  0  0  0  0
 42 45  2  0  0  0  0
 37 46  1  1  0  0  0
 46 47  1  0  0  0  0
 47 48  2  0  0  0  0
 48 49  1  0  0  0  0
 49 50  2  0  0  0  0
 46 50  1  0  0  0  0
 50 51  1  0  0  0  0
 51 52  2  0  0  0  0
 52 53  1  0  0  0  0
 53 54  2  0  0  0  0
 49 54  1  0  0  0  0
 54 55  1  0  0  0  0
M  END
> <DRUGBANK_ID>
DB04045

> <DRUG_GROUPS>
experimental

> <GENERIC_NAME>
Methylmalonyl-Coenzyme A

> <CHEMICAL_FORMULA>
C25H40N7O19P3S

> <MOLECULAR_WEIGHT>
867.607

> <EXACT_MASS>
867.131252359

> <IUPAC_NAME>
(2R)-3-[(2-{3-[(2S)-3-[({[({[(2S,3R,4R,5R)-5-(6-amino-9H-purin-9-yl)-4-hydroxy-3-(phosphonooxy)oxolan-2-yl]methoxy}(hydroxy)phosphoryl)oxy](hydroxy)phosphoryl}oxy)methyl]-2-hydroxy-3-methylbutanamido]propanamido}ethyl)sulfanyl]-2-methyl-3-oxopropanoic acid

> <IUPAC_TRADITIONAL_NAME>
(2R)-3-[(2-{3-[(2S)-3-{[({[(2S,3R,4R,5R)-5-(6-aminopurin-9-yl)-4-hydroxy-3-(phosphonooxy)oxolan-2-yl]methoxy(hydroxy)phosphoryl}oxy(hydroxy)phosphoryl)oxy]methyl}-2-hydroxy-3-methylbutanamido]propanamido}ethyl)sulfanyl]-2-methyl-3-oxopropanoic acid

> <INCHI_IDENTIFIER>
InChI=1S/C25H40N7O19P3S/c1-12(23(37)38)24(39)55-7-6-27-14(33)4-5-28-21(36)18(35)25(2,3)9-48-54(45,46)51-53(43,44)47-8-13-17(50-52(40,41)42)16(34)22(49-13)32-11-31-15-19(26)29-10-30-20(15)32/h10-13,16-18,22,34-35H,4-9H2,1-3H3,(H,27,33)(H,28,36)(H,37,38)(H,43,44)(H,45,46)(H2,26,29,30)(H2,40,41,42)/t12-,13+,16-,17+,18-,22-/m1/s1

> <INCHI_KEY>
InChIKey=MZFOKIKEPGUZEN-MVQIFZLOSA-N

> <SMILES>
C[C@H](C(O)=O)C(=O)SCCNC(=O)CCNC(=O)[C@@H](O)C(C)(C)CO[P@](O)(=O)O[P@@](O)(=O)OC[C@@H]1O[C@H]([C@H](O)[C@H]1OP(O)(O)=O)N1C=NC2=C1N=CN=C2N

> <JCHEM_ACCEPTOR_COUNT>
19

> <JCHEM_DONOR_COUNT>
10

> <JCHEM_ACIDIC_PKA>
0.82

> <JCHEM_BASIC_PKA>
4.97

> <JCHEM_PHYSIOLOGICAL_CHARGE>
-5

> <ALOGPS_LOGP>
-0.6

> <JCHEM_LOGP>
-6.5

> <ALOGPS_LOGS>
-2.4

> <JCHEM_POLARIZABILITY>
76.54

> <JCHEM_POLAR_SURFACE_AREA>
400.93

> <JCHEM_REFRACTIVITY>
183.13

> <JCHEM_ROTATABLE_BOND_COUNT>
22

> <ALOGPS_SOLUBILITY>
3.57e+00 g/l __ 

$$$$
