
  Mrv0541 02231217372D          

 10 10  0  0  1  0            999 V2000
    1.9889    0.2938    0.0000 C   0  0  0  0  0  0  0  0  0  0  0  0
    1.2352    0.6294    0.0000 C   0  0  2  0  0  0  0  0  0  0  0  0
    1.6477    1.3438    0.0000 O   0  0  0  0  0  0  0  0  0  0  0  0
    0.9803   -0.1553    0.0000 O   0  0  0  0  0  0  0  0  0  0  0  0
    0.1553   -0.1553    0.0000 C   0  0  0  0  0  0  0  0  0  0  0  0
   -0.0997    0.6294    0.0000 C   0  0  1  0  0  0  0  0  0  0  0  0
   -0.8843    0.8843    0.0000 O   0  0  0  0  0  0  0  0  0  0  0  0
    0.5678    1.1143    0.0000 C   0  0  0  0  0  0  0  0  0  0  0  0
    0.1628    1.8330    0.0000 O   0  0  0  0  0  0  0  0  0  0  0  0
    0.9728    1.8330    0.0000 O   0  0  0  0  0  0  0  0  0  0  0  0
  2  1  1  6  0  0  0
  2  3  1  1  0  0  0
  2  4  1  0  0  0  0
  4  5  1  0  0  0  0
  5  6  1  0  0  0  0
  6  7  1  1  0  0  0
  6  8  1  0  0  0  0
  2  8  1  0  0  0  0
  8  9  1  0  0  0  0
  8 10  1  0  0  0  0
M  END
> <DRUGBANK_ID>
DB04346

> <DRUG_GROUPS>
experimental

> <GENERIC_NAME>
(2r,4s)-2-Methyl-2,3,3,4-Tetrahydroxytetrahydrofuran

> <CHEMICAL_FORMULA>
C5H10O5

> <MOLECULAR_WEIGHT>
150.1299

> <EXACT_MASS>
150.05282343

> <IUPAC_NAME>
(2S,4R)-2-methyloxolane-2,3,3,4-tetrol

> <IUPAC_TRADITIONAL_NAME>
(2S,4R)-2-methyloxolane-2,3,3,4-tetrol

> <INCHI_IDENTIFIER>
InChI=1S/C5H10O5/c1-4(7)5(8,9)3(6)2-10-4/h3,6-9H,2H2,1H3/t3-,4+/m1/s1

> <INCHI_KEY>
InChIKey=BVIYGXUQVXBHQS-DMTCNVIQSA-N

> <SMILES>
C[C@]1(O)OC[C@@H](O)C1(O)O

> <JCHEM_ACCEPTOR_COUNT>
5

> <JCHEM_DONOR_COUNT>
4

> <JCHEM_ACIDIC_PKA>
9.16

> <JCHEM_BASIC_PKA>
-4

> <JCHEM_PHYSIOLOGICAL_CHARGE>
0

> <ALOGPS_LOGP>
-2

> <JCHEM_LOGP>
-1.6

> <ALOGPS_LOGS>
0.71

> <JCHEM_POLARIZABILITY>
13.34

> <JCHEM_POLAR_SURFACE_AREA>
90.15

> <JCHEM_REFRACTIVITY>
30.49

> <JCHEM_ROTATABLE_BOND_COUNT>
0

> <ALOGPS_SOLUBILITY>
7.66e+02 g/l __ 

$$$$
