
  Mrv0541 02231217392D          

 48 54  0  0  1  0            999 V2000
   -1.0505   -3.4041    0.0000 C   0  0  0  0  0  0  0  0  0  0  0  0
   -0.6002   -4.0954    0.0000 N   0  0  0  0  0  0  0  0  0  0  0  0
    0.2236   -4.0510    0.0000 C   0  0  1  0  0  0  0  0  0  0  0  0
    0.6740   -4.7423    0.0000 C   0  0  2  0  0  0  0  0  0  0  0  0
    0.3005   -5.4779    0.0000 O   0  0  0  0  0  0  0  0  0  0  0  0
    1.4978   -4.6979    0.0000 C   0  0  1  0  0  0  0  0  0  0  0  0
    1.9481   -5.3891    0.0000 O   0  0  0  0  0  0  0  0  0  0  0  0
    1.8713   -3.9622    0.0000 C   0  0  2  0  0  0  0  0  0  0  0  0
    2.6951   -3.9179    0.0000 C   0  0  0  0  0  0  0  0  0  0  0  0
    1.4209   -3.2710    0.0000 O   0  0  0  0  0  0  0  0  0  0  0  0
    0.5971   -3.3154    0.0000 C   0  0  2  0  0  0  0  0  0  0  0  0
    0.1468   -2.6241    0.0000 O   0  0  0  0  0  0  0  0  0  0  0  0
    0.5203   -1.8885    0.0000 C   0  0  2  0  0  0  0  0  0  0  0  0
    0.1446   -1.1540    0.0000 C   0  0  1  0  0  0  0  0  0  0  0  0
   -0.6704   -1.0261    0.0000 O   0  0  0  0  0  0  0  0  0  0  0  0
   -1.1886   -1.6680    0.0000 C   0  0  0  0  0  0  0  0  0  0  0  0
   -0.8919   -2.4378    0.0000 O   0  0  0  0  0  0  0  0  0  0  0  0
   -2.0037   -1.5401    0.0000 C   0  0  0  0  0  0  0  0  0  0  0  0
   -2.3005   -0.7704    0.0000 C   0  0  0  0  0  0  0  0  0  0  0  0
   -1.7822   -0.1285    0.0000 O   0  0  0  0  0  0  0  0  0  0  0  0
   -3.1155   -0.6425    0.0000 C   0  0  0  0  0  0  0  0  0  0  0  0
   -3.6337   -1.2844    0.0000 C   0  0  0  0  0  0  0  0  0  0  0  0
   -3.3370   -2.0542    0.0000 C   0  0  0  0  0  0  0  0  0  0  0  0
   -2.5219   -2.1820    0.0000 C   0  0  0  0  0  0  0  0  0  0  0  0
   -2.2252   -2.9518    0.0000 C   0  0  0  0  0  0  0  0  0  0  0  0
   -2.7434   -3.5937    0.0000 C   0  0  0  0  0  0  0  0  0  0  0  0
   -2.4466   -4.3635    0.0000 O   0  0  0  0  0  0  0  0  0  0  0  0
   -2.9649   -5.0054    0.0000 C   0  0  0  0  0  0  0  0  0  0  0  0
   -3.5584   -3.4658    0.0000 C   0  0  0  0  0  0  0  0  0  0  0  0
   -3.8552   -2.6961    0.0000 C   0  0  0  0  0  0  0  0  0  0  0  0
   -4.6702   -2.5682    0.0000 C   0  0  0  0  0  0  0  0  0  0  0  0
    0.7271   -0.5698    0.0000 C   0  0  0  0  0  0  0  0  0  0  0  0
    1.4628   -0.9432    0.0000 C   0  0  0  0  0  0  0  0  0  0  0  0
    2.0846   -0.4011    0.0000 C   0  0  0  0  0  0  0  0  0  0  0  0
    2.9095   -0.3855    0.0000 C   0  0  0  0  0  0  0  0  0  0  0  0
    3.5514   -0.9037    0.0000 C   0  0  0  0  0  0  0  0  0  0  0  0
    4.3318   -1.1712    0.0000 O   0  0  0  0  0  0  0  0  0  0  0  0
    3.7100   -1.7133    0.0000 C   0  0  1  0  0  0  0  0  0  0  0  0
    3.3111   -2.4355    0.0000 C   0  0  0  0  0  0  0  0  0  0  0  0
    2.5413   -2.7323    0.0000 C   0  0  0  0  0  0  0  0  0  0  0  0
    1.7608   -2.4648    0.0000 C   0  0  0  0  0  0  0  0  0  0  0  0
    1.3349   -1.7583    0.0000 C   0  0  0  0  0  0  0  0  0  0  0  0
    3.9503   -0.1816    0.0000 C   0  0  1  0  0  0  0  0  0  0  0  0
    3.6005    0.5656    0.0000 C   0  0  0  0  0  0  0  0  0  0  0  0
    4.2031    1.1291    0.0000 O   0  0  0  0  0  0  0  0  0  0  0  0
    4.9252    0.7302    0.0000 C   0  0  0  0  0  0  0  0  0  0  0  0
    5.6724    1.0800    0.0000 O   0  0  0  0  0  0  0  0  0  0  0  0
    4.7690   -0.0798    0.0000 O   0  0  0  0  0  0  0  0  0  0  0  0
  1  2  1  0  0  0  0
  3  2  1  6  0  0  0
  3  4  1  0  0  0  0
  4  5  1  1  0  0  0
  4  6  1  0  0  0  0
  6  7  1  6  0  0  0
  6  8  1  0  0  0  0
  8  9  1  1  0  0  0
  8 10  1  0  0  0  0
 10 11  1  0  0  0  0
  3 11  1  0  0  0  0
 11 12  1  1  0  0  0
 13 12  1  6  0  0  0
 13 14  1  0  0  0  0
 14 15  1  1  0  0  0
 15 16  1  0  0  0  0
 16 17  2  0  0  0  0
 16 18  1  0  0  0  0
 18 19  2  0  0  0  0
 19 20  1  0  0  0  0
 19 21  1  0  0  0  0
 21 22  2  0  0  0  0
 22 23  1  0  0  0  0
 23 24  2  0  0  0  0
 18 24  1  0  0  0  0
 24 25  1  0  0  0  0
 25 26  2  0  0  0  0
 26 27  1  0  0  0  0
 27 28  1  0  0  0  0
 26 29  1  0  0  0  0
 29 30  2  0  0  0  0
 23 30  1  0  0  0  0
 30 31  1  0  0  0  0
 14 32  1  0  0  0  0
 32 33  2  0  0  0  0
 33 34  1  0  0  0  0
 34 35  3  0  0  0  0
 35 36  1  0  0  0  0
 36 37  1  0  0  0  0
 38 37  1  1  0  0  0
 36 38  1  0  0  0  0
 38 39  1  0  0  0  0
 39 40  3  0  0  0  0
 40 41  1  0  0  0  0
 41 42  2  0  0  0  0
 13 42  1  0  0  0  0
 33 42  1  0  0  0  0
 43 36  1  1  0  0  0
 43 44  1  0  0  0  0
 44 45  1  0  0  0  0
 45 46  1  0  0  0  0
 46 47  2  0  0  0  0
 46 48  1  0  0  0  0
 43 48  1  0  0  0  0
M  END
> <DRUGBANK_ID>
DB04408

> <DRUG_GROUPS>
experimental

> <GENERIC_NAME>
Ncs-Chromophore

> <CHEMICAL_FORMULA>
C35H33NO12

> <MOLECULAR_WEIGHT>
659.636

> <EXACT_MASS>
659.200275525

> <IUPAC_NAME>
(6S,11S,12S)-11-{[(2R,3S,4S,5R,6S)-4,5-dihydroxy-6-methyl-3-(methylamino)oxan-2-yl]oxy}-4-[(4R)-2-oxo-1,3-dioxolan-4-yl]-5-oxatricyclo[8.3.0.0^{4,6}]trideca-1(13),9-dien-2,7-diyn-12-yl 2-hydroxy-7-methoxy-5-methylnaphthalene-1-carboxylate

> <IUPAC_TRADITIONAL_NAME>
(6S,11S,12S)-11-{[(2R,3S,4S,5R,6S)-4,5-dihydroxy-6-methyl-3-(methylamino)oxan-2-yl]oxy}-4-[(4R)-2-oxo-1,3-dioxolan-4-yl]-5-oxatricyclo[8.3.0.0^{4,6}]trideca-1(13),9-dien-2,7-diyn-12-yl 2-hydroxy-7-methoxy-5-methylnaphthalene-1-carboxylate

> <INCHI_IDENTIFIER>
InChI=1S/C35H33NO12/c1-16-12-19(42-4)14-22-20(16)8-9-23(37)27(22)32(40)45-24-13-18-10-11-35(26-15-43-34(41)46-26)25(48-35)7-5-6-21(18)31(24)47-33-28(36-3)30(39)29(38)17(2)44-33/h6,8-9,12-14,17,24-26,28-31,33,36-39H,15H2,1-4H3/b21-6+/t17-,24-,25-,26+,28-,29-,30-,31-,33+,35?/m0/s1

> <INCHI_KEY>
InChIKey=QZGIWPZCWHMVQL-JDPUZSTRSA-N

> <SMILES>
CN[C@@H]1[C@@H](O[C@@H]2[C@@H](OC(=O)C3=C(O)C=CC4=C3C=C(OC)C=C4C)C=C3C#CC4(O[C@H]4C#C\C=C2/3)[C@H]2COC(=O)O2)O[C@@H](C)[C@H](O)[C@H]1O

> <JCHEM_ACCEPTOR_COUNT>
11

> <JCHEM_DONOR_COUNT>
4

> <JCHEM_ACIDIC_PKA>
9.52

> <JCHEM_BASIC_PKA>
8.1

> <JCHEM_PHYSIOLOGICAL_CHARGE>
1

> <ALOGPS_LOGP>
2.18

> <JCHEM_LOGP>
3.58

> <ALOGPS_LOGS>
-4.4

> <JCHEM_POLARIZABILITY>
65

> <JCHEM_POLAR_SURFACE_AREA>
174.77

> <JCHEM_REFRACTIVITY>
167.38

> <JCHEM_ROTATABLE_BOND_COUNT>
8

> <ALOGPS_SOLUBILITY>
2.67e-02 g/l __ 

$$$$
