
  Mrv0541 02231217432D          

  4  3  0  0  0  0            999 V2000
    1.2375    0.7145    0.0000 O    0  0  0  0  0  0  0  0  0  0  0  0
    0.8250    0.0000    0.0000 Mo   0  0  0  0  0  0  0  0  0  0  0  0
    1.2375   -0.7145    0.0000 O    0  0  0  0  0  0  0  0  0  0  0  0
    0.0000    0.0000    0.0000 O    0  0  0  0  0  0  0  0  0  0  0  0
  1  2  1  0  0  0  0
  2  3  1  0  0  0  0
  2  4  2  0  0  0  0
M  END
> <DRUGBANK_ID>
DB04494

> <DRUG_GROUPS>
experimental

> <GENERIC_NAME>
Mo(Vi)(=O)(Oh)2 Cluster

> <SYNONYMS>


> <CHEMICAL_FORMULA>
H2MoO3

> <MOLECULAR_WEIGHT>
145.95

> <EXACT_MASS>
147.905801776

> <IUPAC_NAME>
dihydroxy(oxo)molybdenumhexakis(ylium)

> <IUPAC_TRADITIONAL_NAME>
mo(vi)(=O)(oh)2 cluster

> <INCHI_IDENTIFIER>
InChI=1S/Mo.2H2O.O/h;2*1H2;/q+8;;;/p-2

> <INCHI_KEY>
InChIKey=GKDPEXRCAVYDOG-UHFFFAOYSA-L

> <SMILES>
O[Mo+6](O)=O

> <JCHEM_ACCEPTOR_COUNT>
3

> <JCHEM_DONOR_COUNT>
2

> <JCHEM_ACIDIC_PKA>
10.32

> <JCHEM_PHYSIOLOGICAL_CHARGE>
6

> <JCHEM_LOGP>
-1.4

> <JCHEM_POLARIZABILITY>
5.53

> <JCHEM_POLAR_SURFACE_AREA>
57.53

> <JCHEM_REFRACTIVITY>
6.57

> <JCHEM_ROTATABLE_BOND_COUNT>
0 __ 

$$$$
