
  Mrv0541 02231217542D          

 63 64  0  0  1  0            999 V2000
   -2.6179   -5.4559    0.0000 C   0  0  0  0  0  0  0  0  0  0  0  0
   -1.8253   -5.2271    0.0000 C   0  0  0  0  0  0  0  0  0  0  0  0
   -1.2308   -5.7992    0.0000 C   0  0  1  0  0  0  0  0  0  0  0  0
   -1.4289   -6.6000    0.0000 O   0  0  0  0  0  0  0  0  0  0  0  0
   -2.2216   -6.8288    0.0000 C   0  0  0  0  0  0  0  0  0  0  0  0
   -0.4381   -5.5703    0.0000 C   0  0  1  0  0  0  0  0  0  0  0  0
   -0.2400   -4.7695    0.0000 C   0  0  0  0  0  0  0  0  0  0  0  0
    0.1563   -6.1424    0.0000 C   0  0  0  0  0  0  0  0  0  0  0  0
   -0.0418   -6.9432    0.0000 O   0  0  0  0  0  0  0  0  0  0  0  0
    0.9490   -5.9136    0.0000 C   0  0  0  0  0  0  0  0  0  0  0  0
    1.5434   -6.4856    0.0000 C   0  0  0  0  0  0  0  0  0  0  0  0
    2.3361   -6.2568    0.0000 C   0  0  2  0  0  0  0  0  0  0  0  0
    2.5342   -5.4559    0.0000 C   0  0  0  0  0  0  0  0  0  0  0  0
    2.9305   -6.8288    0.0000 C   0  0  2  0  0  0  0  0  0  0  0  0
    2.7324   -7.6297    0.0000 O   0  0  0  0  0  0  0  0  0  0  0  0
    1.9398   -7.8585    0.0000 C   0  0  0  0  0  0  0  0  0  0  0  0
    3.7232   -6.6000    0.0000 C   0  0  2  0  0  0  0  0  0  0  0  0
    3.9213   -5.7992    0.0000 C   0  0  0  0  0  0  0  0  0  0  0  0
    4.3177   -7.1720    0.0000 C   0  0  1  0  0  0  0  0  0  0  0  0
    5.1103   -6.9432    0.0000 O   0  0  0  0  0  0  0  0  0  0  0  0
    5.3085   -6.1424    0.0000 C   0  0  0  0  0  0  0  0  0  0  0  0
    4.7140   -5.5703    0.0000 O   0  0  0  0  0  0  0  0  0  0  0  0
    6.1011   -5.9136    0.0000 C   0  0  0  0  0  0  0  0  0  0  0  0
    6.6956   -6.4856    0.0000 C   0  0  0  0  0  0  0  0  0  0  0  0
    6.4974   -7.2864    0.0000 C   0  0  0  0  0  0  0  0  0  0  0  0
    7.0919   -7.8585    0.0000 C   0  0  0  0  0  0  0  0  0  0  0  0
    7.8845   -7.6297    0.0000 C   0  0  0  0  0  0  0  0  0  0  0  0
    6.8937   -8.6593    0.0000 C   0  0  0  0  0  0  0  0  0  0  0  0
    7.4882   -9.2314    0.0000 C   0  0  2  0  0  0  0  0  0  0  0  0
    7.2900  -10.0322    0.0000 C   0  0  0  0  0  0  0  0  0  0  0  0
    7.8845  -10.6042    0.0000 C   0  0  0  0  0  0  0  0  0  0  0  0
    8.6771  -10.3754    0.0000 C   0  0  0  0  0  0  0  0  0  0  0  0
    9.2716  -10.9475    0.0000 C   0  0  0  0  0  0  0  0  0  0  0  0
   10.0643  -10.7186    0.0000 O   0  0  0  0  0  0  0  0  0  0  0  0
    9.0735  -11.7483    0.0000 O   0  0  0  0  0  0  0  0  0  0  0  0
    8.2808  -11.9771    0.0000 C   0  0  2  0  0  0  0  0  0  0  0  0
    7.6864  -11.4051    0.0000 C   0  0  0  0  0  0  0  0  0  0  0  0
    8.0827  -12.7780    0.0000 C   0  0  2  0  0  0  0  0  0  0  0  0
    8.6771  -13.3500    0.0000 C   0  0  0  0  0  0  0  0  0  0  0  0
    7.2900  -13.0068    0.0000 C   0  0  2  0  0  0  0  0  0  0  0  0
    7.0919  -13.8076    0.0000 C   0  0  0  0  0  0  0  0  0  0  0  0
    6.2992  -14.0364    0.0000 C   0  0  2  0  0  0  0  0  0  0  0  0
    6.1011  -14.8373    0.0000 O   0  0  0  0  0  0  0  0  0  0  0  0
    5.3085  -15.0661    0.0000 C   0  0  0  0  0  0  0  0  0  0  0  0
    5.7048  -13.4644    0.0000 C   0  0  0  0  0  0  0  0  0  0  0  0
    5.9029  -12.6636    0.0000 C   0  0  0  0  0  0  0  0  0  0  0  0
    5.3085  -12.0915    0.0000 C   0  0  2  0  0  0  0  0  0  0  0  0
    4.5158  -12.3203    0.0000 C   0  0  0  0  0  0  0  0  0  0  0  0
    5.5066  -11.2907    0.0000 C   0  0  2  0  0  0  0  0  0  0  0  0
    4.9121  -10.7186    0.0000 C   0  0  0  0  0  0  0  0  0  0  0  0
    5.1103   -9.9178    0.0000 C   0  0  1  0  0  0  0  0  0  0  0  0
    4.3177  -10.1466    0.0000 O   0  0  0  0  0  0  0  0  0  0  0  0
    3.7232   -9.5746    0.0000 C   0  0  0  0  0  0  0  0  0  0  0  0
    4.5158   -9.3458    0.0000 C   0  0  0  0  0  0  0  0  0  0  0  0
    4.7140   -8.5449    0.0000 C   0  0  0  0  0  0  0  0  0  0  0  0
    4.1195   -7.9729    0.0000 C   0  0  2  0  0  0  0  0  0  0  0  0
    3.3269   -8.2017    0.0000 C   0  0  0  0  0  0  0  0  0  0  0  0
    4.7140  -11.5195    0.0000 O   0  0  0  0  0  0  0  0  0  0  0  0
    4.1195  -10.9475    0.0000 C   0  0  0  0  0  0  0  0  0  0  0  0
    7.8845  -13.5788    0.0000 O   0  0  0  0  0  0  0  0  0  0  0  0
    7.6864  -14.3797    0.0000 C   0  0  0  0  0  0  0  0  0  0  0  0
    8.2808   -9.0025    0.0000 O   0  0  0  0  0  0  0  0  0  0  0  0
    8.8753   -9.5746    0.0000 C   0  0  0  0  0  0  0  0  0  0  0  0
  1  2  1  0  0  0  0
  2  3  1  0  0  0  0
  3  4  1  6  0  0  0
  4  5  1  0  0  0  0
  3  6  1  0  0  0  0
  6  7  1  1  0  0  0
  6  8  1  0  0  0  0
  8  9  2  0  0  0  0
  8 10  1  0  0  0  0
 10 11  1  0  0  0  0
 11 12  1  0  0  0  0
 12 13  1  6  0  0  0
 12 14  1  0  0  0  0
 14 15  1  1  0  0  0
 15 16  1  0  0  0  0
 14 17  1  0  0  0  0
 17 18  1  6  0  0  0
 19 17  1  1  0  0  0
 19 20  1  0  0  0  0
 20 21  1  0  0  0  0
 21 22  2  0  0  0  0
 21 23  1  0  0  0  0
 23 24  2  0  0  0  0
 24 25  1  0  0  0  0
 25 26  2  0  0  0  0
 26 27  1  0  0  0  0
 26 28  1  0  0  0  0
 28 29  1  0  0  0  0
 29 30  1  0  0  0  0
 30 31  1  0  0  0  0
 31 32  2  0  0  0  0
 32 33  1  0  0  0  0
 33 34  2  0  0  0  0
 33 35  1  0  0  0  0
 36 35  1  1  0  0  0
 36 37  1  0  0  0  0
 31 37  1  0  0  0  0
 36 38  1  0  0  0  0
 38 39  1  6  0  0  0
 38 40  1  0  0  0  0
 40 41  1  0  0  0  0
 41 42  1  0  0  0  0
 42 43  1  6  0  0  0
 43 44  1  0  0  0  0
 42 45  1  0  0  0  0
 45 46  2  0  0  0  0
 46 47  1  0  0  0  0
 47 48  1  6  0  0  0
 47 49  1  0  0  0  0
 49 50  1  0  0  0  0
 50 51  1  0  0  0  0
 51 52  1  6  0  0  0
 52 53  1  0  0  0  0
 51 54  1  0  0  0  0
 54 55  2  0  0  0  0
 55 56  1  0  0  0  0
 19 56  1  0  0  0  0
 56 57  1  6  0  0  0
 49 58  1  6  0  0  0
 58 59  1  0  0  0  0
 40 60  1  6  0  0  0
 60 61  1  0  0  0  0
 29 62  1  1  0  0  0
 62 63  1  0  0  0  0
M  END
> <DRUGBANK_ID>
DB04775

> <DRUG_GROUPS>
experimental

> <GENERIC_NAME>
Reidispongiolide C

> <CHEMICAL_FORMULA>
C51H84O12

> <MOLECULAR_WEIGHT>
889.2055

> <EXACT_MASS>
888.596278152

> <IUPAC_NAME>
(3R,11S,12S,15R,17S,18S,21S,23S,24R,25R)-11-[(2S,3S,4S,8R,9R)-3,9-dimethoxy-4,8-dimethyl-7-oxoundecan-2-yl]-3,15,17,21,23-pentamethoxy-5,12,18,24-tetramethyl-10,26-dioxabicyclo[23.3.1]nonacosa-1(28),5,7,13,19-pentaene-9,27-dione

> <IUPAC_TRADITIONAL_NAME>
(3R,11S,12S,15R,17S,18S,21S,23S,24R,25R)-11-[(2S,3S,4S,8R,9R)-3,9-dimethoxy-4,8-dimethyl-7-oxoundecan-2-yl]-3,15,17,21,23-pentamethoxy-5,12,18,24-tetramethyl-10,26-dioxabicyclo[23.3.1]nonacosa-1(28),5,7,13,19-pentaene-9,27-dione

> <INCHI_IDENTIFIER>
InChI=1S/C51H84O12/c1-16-44(58-12)36(6)43(52)25-22-34(4)50(61-15)38(8)51-35(5)21-24-40(55-9)30-45(59-13)33(3)20-23-41(56-10)31-46(60-14)37(7)47-28-39(29-49(54)62-47)27-42(57-11)26-32(2)18-17-19-48(53)63-51/h17-21,23-24,29,33-38,40-42,44-47,50-51H,16,22,25-28,30-31H2,1-15H3/b19-17-,23-20+,24-21+,32-18+/t33-,34-,35-,36-,37+,38-,40-,41+,42+,44+,45-,46-,47+,50-,51-/m0/s1

> <INCHI_KEY>
InChIKey=GATPHXXEPJBDKA-DCQWOVGRSA-N

> <SMILES>
CC[C@@H](OC)[C@@H](C)C(=O)CC[C@H](C)[C@H](OC)[C@H](C)[C@H]1OC(=O)\C=C/C=C(C)/C[C@H](CC2=CC(=O)O[C@H](C2)[C@H](C)[C@H](C[C@H](OC)\C=C\[C@H](C)[C@H](C[C@@H](OC)\C=C\[C@@H]1C)OC)OC)OC

> <JCHEM_ACCEPTOR_COUNT>
10

> <JCHEM_DONOR_COUNT>
0

> <JCHEM_ACIDIC_PKA>
16.57

> <JCHEM_BASIC_PKA>
-3.4

> <JCHEM_PHYSIOLOGICAL_CHARGE>
0

> <ALOGPS_LOGP>
6.32

> <JCHEM_LOGP>
8.64

> <ALOGPS_LOGS>
-6.6

> <JCHEM_POLARIZABILITY>
101.49

> <JCHEM_POLAR_SURFACE_AREA>
134.28

> <JCHEM_REFRACTIVITY>
253

> <JCHEM_ROTATABLE_BOND_COUNT>
16

> <ALOGPS_SOLUBILITY>
2.17e-04 g/l __ 

$$$$
