RPN
  Mrv0541 02231217422D          

 16 16  0  0  0  0            999 V2000
    0.8080    1.0128    0.0000 C   0  0  0  0  0  0  0  0  0  0  0  0
    0.8080    0.1878    0.0000 C   0  0  2  0  0  0  0  0  0  0  0  0
    1.5225   -0.2247    0.0000 O   0  0  0  0  0  0  0  0  0  0  0  0
    0.0935   -0.2247    0.0000 C   0  0  0  0  0  0  0  0  0  0  0  0
    1.5225    1.4253    0.0000 N   0  0  0  0  0  0  0  0  0  0  0  0
    1.5225    2.2503    0.0000 N   0  3  0  0  0  0  0  0  0  0  0  0
    1.5225    3.0753    0.0000 N   0  5  0  0  0  0  0  0  0  0  0  0
    0.0935   -1.0497    0.0000 C   0  0  0  0  0  0  0  0  0  0  0  0
   -0.6209   -1.4622    0.0000 C   0  0  0  0  0  0  0  0  0  0  0  0
   -1.3354   -1.0497    0.0000 C   0  0  0  0  0  0  0  0  0  0  0  0
   -1.3354   -0.2247    0.0000 C   0  0  0  0  0  0  0  0  0  0  0  0
   -0.6209    0.1878    0.0000 C   0  0  0  0  0  0  0  0  0  0  0  0
   -2.0499   -1.4622    0.0000 N   0  3  0  0  0  0  0  0  0  0  0  0
   -2.0499   -2.2872    0.0000 O   0  5  0  0  0  0  0  0  0  0  0  0
   -2.7644   -1.0497    0.0000 O   0  0  0  0  0  0  0  0  0  0  0  0
    1.3137    0.4798    0.0000 H   0  0  0  0  0  0  0  0  0  0  0  0
  1  2  1  0  0  0  0
  1  5  1  0  0  0  0
  2  3  1  6  0  0  0
  2  4  1  0  0  0  0
  2 16  1  1  0  0  0
  4  8  2  0  0  0  0
  4 12  1  0  0  0  0
  5  6  2  0  0  0  0
  6  7  2  0  0  0  0
  8  9  1  0  0  0  0
  9 10  2  0  0  0  0
 10 11  1  0  0  0  0
 10 13  1  0  0  0  0
 11 12  2  0  0  0  0
 13 14  1  0  0  0  0
 13 15  2  0  0  0  0
M  END
> <DRUGBANK_ID>
DB04472

> <DRUG_GROUPS>
experimental

> <GENERIC_NAME>
(R)-1-Para-Nitro-Phenyl-2-Azido-Ethanol

> <CHEMICAL_FORMULA>
C8H8N4O3

> <MOLECULAR_WEIGHT>
208.1741

> <EXACT_MASS>
208.059640142

> <IUPAC_NAME>
(1R)-2-azido-1-(4-nitrophenyl)ethan-1-ol

> <IUPAC_TRADITIONAL_NAME>
(1R)-2-azido-1-(4-nitrophenyl)ethanol

> <INCHI_IDENTIFIER>
InChI=1S/C8H8N4O3/c9-11-10-5-8(13)6-1-3-7(4-2-6)12(14)15/h1-4,8,13H,5H2/t8-/m0/s1

> <INCHI_KEY>
InChIKey=DHEGJYKMZJGYGW-QMMMGPOBSA-N

> <SMILES>
[H][C@](O)(CN=[N+]=[N-])C1=CC=C(C=C1)[N+]([O-])=O

> <JCHEM_ACCEPTOR_COUNT>
5

> <JCHEM_DONOR_COUNT>
1

> <JCHEM_ACIDIC_PKA>
13.73

> <JCHEM_BASIC_PKA>
-3.5

> <JCHEM_PHYSIOLOGICAL_CHARGE>
0

> <ALOGPS_LOGP>
2.05

> <JCHEM_LOGP>
1.34

> <ALOGPS_LOGS>
-1.9

> <JCHEM_POLARIZABILITY>
18.73

> <JCHEM_POLAR_SURFACE_AREA>
95.48

> <JCHEM_REFRACTIVITY>
52.45

> <JCHEM_ROTATABLE_BOND_COUNT>
4

> <ALOGPS_SOLUBILITY>
2.70e+00 g/l __ 

$$$$
