
  Mrv0541 02231217302D          

  9  8  0  0  0  0            999 V2000
    1.2375   -0.7145    0.0000 N   0  0  0  0  0  0  0  0  0  0  0  0
    0.8250    0.0000    0.0000 C   0  0  0  0  0  0  0  0  0  0  0  0
    1.2375    0.7145    0.0000 N   0  0  0  0  0  0  0  0  0  0  0  0
    2.0625    0.7145    0.0000 O   0  0  0  0  0  0  0  0  0  0  0  0
    0.0000    0.0000    0.0000 N   0  0  0  0  0  0  0  0  0  0  0  0
   -0.4125   -0.7145    0.0000 C   0  0  0  0  0  0  0  0  0  0  0  0
    0.0000   -1.4289    0.0000 C   0  0  0  0  0  0  0  0  0  0  0  0
   -0.4125   -2.1434    0.0000 C   0  0  0  0  0  0  0  0  0  0  0  0
    0.0000   -2.8579    0.0000 N   0  3  0  0  0  0  0  0  0  0  0  0
  1  2  1  0  0  0  0
  2  3  1  0  0  0  0
  3  4  1  0  0  0  0
  2  5  2  0  0  0  0
  5  6  1  0  0  0  0
  6  7  1  0  0  0  0
  7  8  1  0  0  0  0
  8  9  1  0  0  0  0
M  END
> <DRUGBANK_ID>
DB04197

> <DRUG_GROUPS>
experimental

> <GENERIC_NAME>
Descarboxy-nor-N(Omega)-Hydroxy-L-Arginine

> <CHEMICAL_FORMULA>
C4H13N4O

> <MOLECULAR_WEIGHT>
133.1722

> <EXACT_MASS>
133.108936058

> <IUPAC_NAME>
(E)-2-(3-azaniumylpropyl)-1-hydroxyguanidine

> <IUPAC_TRADITIONAL_NAME>
(E)-2-(3-aminiopropyl)-1-hydroxyguanidine

> <INCHI_IDENTIFIER>
InChI=1S/C4H12N4O/c5-2-1-3-7-4(6)8-9/h9H,1-3,5H2,(H3,6,7,8)/p+1

> <INCHI_KEY>
InChIKey=HYBLXYGPQAIGPY-UHFFFAOYSA-O

> <SMILES>
N\C(NO)=N/CCC[NH3+]

> <JCHEM_ACCEPTOR_COUNT>
4

> <JCHEM_DONOR_COUNT>
4

> <JCHEM_ACIDIC_PKA>
14.82

> <JCHEM_BASIC_PKA>
10.31

> <JCHEM_PHYSIOLOGICAL_CHARGE>
2

> <ALOGPS_LOGP>
-2.9

> <JCHEM_LOGP>
-1.7

> <ALOGPS_LOGS>
-1.6

> <JCHEM_POLARIZABILITY>
14.41

> <JCHEM_POLAR_SURFACE_AREA>
98.28

> <JCHEM_REFRACTIVITY>
56.71

> <JCHEM_ROTATABLE_BOND_COUNT>
3

> <ALOGPS_SOLUBILITY>
4.52e+00 g/l __ 

$$$$
