
  Mrv0541 02231217552D          

  9  9  0  0  1  0            999 V2000
    0.0000    2.4750    0.0000 C   0  0  0  0  0  0  0  0  0  0  0  0
    0.7145    2.0625    0.0000 C   0  0  1  0  0  0  0  0  0  0  0  0
    1.4289    2.4750    0.0000 O   0  0  0  0  0  0  0  0  0  0  0  0
    0.7145    1.2375    0.0000 C   0  0  0  0  0  0  0  0  0  0  0  0
    1.4289    0.8250    0.0000 C   0  0  0  0  0  0  0  0  0  0  0  0
    1.4289    0.0000    0.0000 C   0  0  0  0  0  0  0  0  0  0  0  0
    0.7145   -0.4125    0.0000 C   0  0  0  0  0  0  0  0  0  0  0  0
    0.0000    0.0000    0.0000 C   0  0  0  0  0  0  0  0  0  0  0  0
    0.0000    0.8250    0.0000 C   0  0  0  0  0  0  0  0  0  0  0  0
  1  2  1  0  0  0  0
  2  3  1  1  0  0  0
  2  4  1  0  0  0  0
  4  5  2  0  0  0  0
  5  6  1  0  0  0  0
  6  7  2  0  0  0  0
  7  8  1  0  0  0  0
  8  9  2  0  0  0  0
  4  9  1  0  0  0  0
M  END
> <DRUGBANK_ID>
DB04784

> <DRUG_GROUPS>
experimental

> <GENERIC_NAME>
Methylphenyl carbinol

> <SYNONYMS>


> <CHEMICAL_FORMULA>
C8H10O

> <MOLECULAR_WEIGHT>
122.1644

> <EXACT_MASS>
122.073164942

> <IUPAC_NAME>
(1R)-1-phenylethan-1-ol

> <IUPAC_TRADITIONAL_NAME>
methylphenyl carbinol

> <INCHI_IDENTIFIER>
InChI=1S/C8H10O/c1-7(9)8-5-3-2-4-6-8/h2-7,9H,1H3/t7-/m1/s1

> <INCHI_KEY>
InChIKey=WAPNOHKVXSQRPX-SSDOTTSWSA-N

> <SMILES>
C[C@@H](O)C1=CC=CC=C1

> <JCHEM_ACCEPTOR_COUNT>
1

> <JCHEM_DONOR_COUNT>
1

> <JCHEM_ACIDIC_PKA>
14.81

> <JCHEM_BASIC_PKA>
-2.9

> <JCHEM_PHYSIOLOGICAL_CHARGE>
0

> <ALOGPS_LOGP>
1.58

> <JCHEM_LOGP>
1.62

> <ALOGPS_LOGS>
-0.9

> <JCHEM_POLARIZABILITY>
13.7

> <JCHEM_POLAR_SURFACE_AREA>
20.23

> <JCHEM_REFRACTIVITY>
37.29

> <JCHEM_ROTATABLE_BOND_COUNT>
1

> <ALOGPS_SOLUBILITY>
1.55e+01 g/l __ 

$$$$
