
  Mrv0541 02231217422D          

 48 52  0  0  0  0            999 V2000
    1.6497   -2.8485    0.0000 C   0  0  0  0  0  0  0  0  0  0  0  0
    1.5044   -2.0364    0.0000 C   0  0  0  0  0  0  0  0  0  0  0  0
    0.7106   -1.6627    0.0000 C   0  0  0  0  0  0  0  0  0  0  0  0
    0.0112   -2.0494    0.0000 C   0  0  0  0  0  0  0  0  0  0  0  0
   -0.7243   -1.6459    0.0000 C   0  0  0  0  0  0  0  0  0  0  0  0
   -0.8480   -0.8857    0.0000 N   0  0  0  0  0  0  0  0  0  0  0  0
   -1.6690   -0.7465    0.0000 C   0  0  0  0  0  0  0  0  0  0  0  0
   -2.0558   -0.0472    0.0000 C   0  0  0  0  0  0  0  0  0  0  0  0
   -1.6818    0.7174    0.0000 C   0  0  0  0  0  0  0  0  0  0  0  0
   -0.8926    0.8706    0.0000 N   0  0  0  0  0  0  0  0  0  0  0  0
   -0.7239    1.6627    0.0000 C   0  0  0  0  0  0  0  0  0  0  0  0
    0.0047    2.0496    0.0000 C   0  0  0  0  0  0  0  0  0  0  0  0
    0.7107    1.6752    0.0000 C   0  0  0  0  0  0  0  0  0  0  0  0
    0.8643    0.8567    0.0000 N   0  0  0  0  0  0  0  0  0  0  0  0
    1.6265    0.7462    0.0000 C   0  0  0  0  0  0  0  0  0  0  0  0
    2.0427    0.0179    0.0000 C   0  0  0  0  0  0  0  0  0  0  0  0
    1.6683   -0.6881    0.0000 C   0  0  0  0  0  0  0  0  0  0  0  0
    0.8501   -0.8709    0.0000 N   0  0  0  0  0  0  0  0  0  0  0  0
    2.0558   -1.4752    0.0000 C   0  0  0  0  0  0  0  0  0  0  0  0
    2.8703   -1.6063    0.0000 C   0  0  0  0  0  0  0  0  0  0  0  0
    3.3911   -0.9664    0.0000 C   0  0  0  0  0  0  0  0  0  0  0  0
    4.2056   -1.0975    0.0000 C   0  0  0  0  0  0  0  0  0  0  0  0
    4.7264   -0.4576    0.0000 O   0  0  0  0  0  0  0  0  0  0  0  0
    4.4994   -1.8684    0.0000 O   0  0  0  0  0  0  0  0  0  0  0  0
    2.0297    1.5110    0.0000 C   0  0  0  0  0  0  0  0  0  0  0  0
    2.8449    1.6379    0.0000 C   0  0  0  0  0  0  0  0  0  0  0  0
    1.4686    2.0624    0.0000 C   0  0  0  0  0  0  0  0  0  0  0  0
    1.5937    2.8779    0.0000 C   0  0  0  0  0  0  0  0  0  0  0  0
    0.9500    3.3939    0.0000 C   0  0  0  0  0  0  0  0  0  0  0  0
    1.0750    4.2094    0.0000 C   0  0  0  0  0  0  0  0  0  0  0  0
    1.8438    4.5088    0.0000 O   0  0  0  0  0  0  0  0  0  0  0  0
    0.4314    4.7254    0.0000 O   0  0  0  0  0  0  0  0  0  0  0  0
   -1.4588    2.0076    0.0000 C   0  0  0  0  0  0  0  0  0  0  0  0
   -1.6046    2.8196    0.0000 C   0  0  0  0  0  0  0  0  0  0  0  0
   -2.0393    1.4169    0.0000 C   0  0  0  0  0  0  0  0  0  0  0  0
   -2.8548    1.5419    0.0000 C   0  0  0  0  0  0  0  0  0  0  0  0
   -3.3708    0.8982    0.0000 C   0  0  0  0  0  0  0  0  0  0  0  0
   -4.1862    1.0232    0.0000 C   0  0  0  0  0  0  0  0  0  0  0  0
   -4.4857    1.7919    0.0000 O   0  0  0  0  0  0  0  0  0  0  0  0
   -4.7022    0.3795    0.0000 O   0  0  0  0  0  0  0  0  0  0  0  0
   -2.0430   -1.5110    0.0000 C   0  0  0  0  0  0  0  0  0  0  0  0
   -2.8562   -1.6502    0.0000 C   0  0  0  0  0  0  0  0  0  0  0  0
   -3.1422   -2.4241    0.0000 C   0  0  0  0  0  0  0  0  0  0  0  0
   -3.9553   -2.5633    0.0000 C   0  0  0  0  0  0  0  0  0  0  0  0
   -4.4825   -1.9287    0.0000 O   0  0  0  0  0  0  0  0  0  0  0  0
   -4.2414   -3.3371    0.0000 O   0  0  0  0  0  0  0  0  0  0  0  0
   -1.4819   -2.0624    0.0000 C   0  0  0  0  0  0  0  0  0  0  0  0
   -1.5946   -2.8797    0.0000 C   0  0  0  0  0  0  0  0  0  0  0  0
  1  2  1  0  0  0  0
  2  3  4  0  0  0  0
  3  4  1  0  0  0  0
  4  5  1  0  0  0  0
  5  6  4  0  0  0  0
  6  7  4  0  0  0  0
  7  8  1  0  0  0  0
  8  9  1  0  0  0  0
  9 10  4  0  0  0  0
 10 11  4  0  0  0  0
 11 12  1  0  0  0  0
 12 13  1  0  0  0  0
 13 14  4  0  0  0  0
 14 15  4  0  0  0  0
 15 16  1  0  0  0  0
 16 17  1  0  0  0  0
 17 18  4  0  0  0  0
  3 18  4  0  0  0  0
 17 19  4  0  0  0  0
  2 19  4  0  0  0  0
 19 20  1  0  0  0  0
 20 21  1  0  0  0  0
 21 22  1  0  0  0  0
 22 23  1  0  0  0  0
 22 24  2  0  0  0  0
 15 25  4  0  0  0  0
 25 26  1  0  0  0  0
 25 27  4  0  0  0  0
 13 27  4  0  0  0  0
 27 28  1  0  0  0  0
 28 29  1  0  0  0  0
 29 30  1  0  0  0  0
 30 31  1  0  0  0  0
 30 32  2  0  0  0  0
 11 33  4  0  0  0  0
 33 34  1  0  0  0  0
 33 35  4  0  0  0  0
  9 35  4  0  0  0  0
 35 36  1  0  0  0  0
 36 37  1  0  0  0  0
 37 38  1  0  0  0  0
 38 39  1  0  0  0  0
 38 40  2  0  0  0  0
  7 41  4  0  0  0  0
 41 42  1  0  0  0  0
 42 43  1  0  0  0  0
 43 44  1  0  0  0  0
 44 45  1  0  0  0  0
 44 46  2  0  0  0  0
 41 47  4  0  0  0  0
  5 47  4  0  0  0  0
 47 48  1  0  0  0  0
M  END
> <DRUGBANK_ID>
DB04461

> <DRUG_GROUPS>
experimental

> <GENERIC_NAME>
Coproporphyrin Iii

> <CHEMICAL_FORMULA>
C36H40N4O8

> <MOLECULAR_WEIGHT>
656.7248

> <EXACT_MASS>
656.284614276

> <SMILES>
Cc1c2Cc3nc(Cc4nc(Cc5nc(Cc(n2)c1CCC(O)=O)c(C)c5CCC(O)=O)c(C)c4CCC(O)=O)c(CCC(O)=O)c3C

> <JCHEM_ACCEPTOR_COUNT>
12

> <JCHEM_DONOR_COUNT>
4

> <JCHEM_ACIDIC_PKA>
2.76

> <JCHEM_BASIC_PKA>
5.38

> <JCHEM_PHYSIOLOGICAL_CHARGE>
-4

> <ALOGPS_LOGP>
1.96

> <JCHEM_LOGP>
0.43

> <ALOGPS_LOGS>
-4.8

> <JCHEM_POLARIZABILITY>
69.35

> <JCHEM_POLAR_SURFACE_AREA>
200.76

> <JCHEM_REFRACTIVITY>
173.57

> <JCHEM_ROTATABLE_BOND_COUNT>
12

> <ALOGPS_SOLUBILITY>
1.12e-02 g/l __ 

$$$$
