
  Mrv0541 02231217292D          

 13 12  0  0  1  0            999 V2000
    1.0461    1.4289    0.0000 C   0  0  0  0  0  0  0  0  0  0  0  0
    1.7605    1.8414    0.0000 C   0  0  0  0  0  0  0  0  0  0  0  0
    1.7605    2.6664    0.0000 O   0  0  0  0  0  0  0  0  0  0  0  0
    2.4750    1.4289    0.0000 N   0  0  0  0  0  0  0  0  0  0  0  0
    3.1895    1.8414    0.0000 C   0  0  1  0  0  0  0  0  0  0  0  0
    3.9039    1.4289    0.0000 C   0  0  0  0  0  0  0  0  0  0  0  0
    4.6184    1.8414    0.0000 C   0  0  0  0  0  0  0  0  0  0  0  0
    5.3329    1.4289    0.0000 C   0  0  0  0  0  0  0  0  0  0  0  0
    6.0474    1.8414    0.0000 N   0  0  0  0  0  0  0  0  0  0  0  0
    5.3329    0.6039    0.0000 O   0  0  0  0  0  0  0  0  0  0  0  0
    3.1895    2.6664    0.0000 C   0  0  0  0  0  0  0  0  0  0  0  0
    3.9039    3.0789    0.0000 O   0  0  0  0  0  0  0  0  0  0  0  0
    2.4750    3.0789    0.0000 O   0  0  0  0  0  0  0  0  0  0  0  0
  1  2  1  0  0  0  0
  2  3  2  0  0  0  0
  2  4  1  0  0  0  0
  5  4  1  6  0  0  0
  5  6  1  0  0  0  0
  6  7  1  0  0  0  0
  7  8  1  0  0  0  0
  8  9  1  0  0  0  0
  8 10  2  0  0  0  0
  5 11  1  0  0  0  0
 11 12  1  0  0  0  0
 11 13  2  0  0  0  0
M  END
> <DRUGBANK_ID>
DB04167

> <DRUG_GROUPS>
experimental

> <GENERIC_NAME>
N-Acetyl-L-Glutamine

> <CHEMICAL_FORMULA>
C7H12N2O4

> <MOLECULAR_WEIGHT>
188.1812

> <EXACT_MASS>
188.079706882

> <IUPAC_NAME>
(2S)-4-carbamoyl-2-acetamidobutanoic acid

> <IUPAC_TRADITIONAL_NAME>
N-acetyl-L-glutamine

> <INCHI_IDENTIFIER>
InChI=1S/C7H12N2O4/c1-4(10)9-5(7(12)13)2-3-6(8)11/h5H,2-3H2,1H3,(H2,8,11)(H,9,10)(H,12,13)/t5-/m0/s1

> <INCHI_KEY>
InChIKey=KSMRODHGGIIXDV-YFKPBYRVSA-N

> <SMILES>
CC(=O)N[C@@H](CCC(N)=O)C(O)=O

> <JCHEM_ACCEPTOR_COUNT>
4

> <JCHEM_DONOR_COUNT>
3

> <JCHEM_ACIDIC_PKA>
3.76

> <JCHEM_BASIC_PKA>
-0.75

> <JCHEM_PHYSIOLOGICAL_CHARGE>
-1

> <ALOGPS_LOGP>
-2.2

> <JCHEM_LOGP>
-1.9

> <ALOGPS_LOGS>
-0.93

> <JCHEM_POLARIZABILITY>
17.83

> <JCHEM_POLAR_SURFACE_AREA>
109.49

> <JCHEM_REFRACTIVITY>
42.55

> <JCHEM_ROTATABLE_BOND_COUNT>
5

> <ALOGPS_SOLUBILITY>
2.19e+01 g/l __ 

$$$$
