
  Mrv0541 02231217322D          

 20 19  0  0  0  0            999 V2000
   -4.1467    2.5559    0.0000 C   0  0  0  0  0  0  0  0  0  0  0  0
   -3.4322    2.1434    0.0000 C   0  0  0  0  0  0  0  0  0  0  0  0
   -2.7177    2.5559    0.0000 C   0  0  0  0  0  0  0  0  0  0  0  0
   -2.0033    2.1434    0.0000 C   0  0  0  0  0  0  0  0  0  0  0  0
   -1.2888    2.5559    0.0000 C   0  0  0  0  0  0  0  0  0  0  0  0
   -0.5743    2.1434    0.0000 C   0  0  0  0  0  0  0  0  0  0  0  0
    0.1401    2.5559    0.0000 C   0  0  0  0  0  0  0  0  0  0  0  0
    0.8546    2.1434    0.0000 C   0  0  0  0  0  0  0  0  0  0  0  0
    1.5691    2.5559    0.0000 C   0  0  0  0  0  0  0  0  0  0  0  0
    2.2836    2.1434    0.0000 C   0  0  0  0  0  0  0  0  0  0  0  0
    2.9980    2.5559    0.0000 C   0  0  0  0  0  0  0  0  0  0  0  0
    3.7125    2.1434    0.0000 C   0  0  0  0  0  0  0  0  0  0  0  0
    4.4270    2.5559    0.0000 C   0  0  0  0  0  0  0  0  0  0  0  0
    5.1414    2.1434    0.0000 C   0  0  0  0  0  0  0  0  0  0  0  0
    5.8559    2.5559    0.0000 C   0  0  0  0  0  0  0  0  0  0  0  0
    6.5704    2.1434    0.0000 C   0  0  0  0  0  0  0  0  0  0  0  0
    7.2849    2.5559    0.0000 C   0  0  0  0  0  0  0  0  0  0  0  0
    7.9993    2.1434    0.0000 C   0  0  0  0  0  0  0  0  0  0  0  0
    8.7138    2.5559    0.0000 O   0  0  0  0  0  0  0  0  0  0  0  0
    7.9993    1.3184    0.0000 O   0  0  0  0  0  0  0  0  0  0  0  0
  1  2  1  0  0  0  0
  2  3  1  0  0  0  0
  3  4  1  0  0  0  0
  4  5  1  0  0  0  0
  5  6  1  0  0  0  0
  6  7  1  0  0  0  0
  7  8  1  0  0  0  0
  8  9  1  0  0  0  0
  9 10  2  0  0  0  0
 10 11  1  0  0  0  0
 11 12  1  0  0  0  0
 12 13  1  0  0  0  0
 13 14  1  0  0  0  0
 14 15  1  0  0  0  0
 15 16  1  0  0  0  0
 16 17  1  0  0  0  0
 17 18  1  0  0  0  0
 18 19  1  0  0  0  0
 18 20  2  0  0  0  0
M  END
> <DRUGBANK_ID>
DB04224

> <DRUG_GROUPS>
experimental

> <GENERIC_NAME>
Oleic Acid

> <CHEMICAL_FORMULA>
C18H34O2

> <MOLECULAR_WEIGHT>
282.4614

> <EXACT_MASS>
282.255880332

> <IUPAC_NAME>
(9E)-octadec-9-enoic acid

> <IUPAC_TRADITIONAL_NAME>
oleic acid

> <INCHI_IDENTIFIER>
InChI=1S/C18H34O2/c1-2-3-4-5-6-7-8-9-10-11-12-13-14-15-16-17-18(19)20/h9-10H,2-8,11-17H2,1H3,(H,19,20)/b10-9+

> <INCHI_KEY>
InChIKey=ZQPPMHVWECSIRJ-MDZDMXLPSA-N

> <SMILES>
CCCCCCCC\C=C\CCCCCCCC(O)=O

> <JCHEM_ACCEPTOR_COUNT>
2

> <JCHEM_DONOR_COUNT>
1

> <JCHEM_ACIDIC_PKA>
4.99

> <JCHEM_PHYSIOLOGICAL_CHARGE>
-1

> <ALOGPS_LOGP>
7.68

> <JCHEM_LOGP>
6.78

> <ALOGPS_LOGS>
-6.4

> <JCHEM_POLARIZABILITY>
37.64

> <JCHEM_POLAR_SURFACE_AREA>
37.3

> <JCHEM_REFRACTIVITY>
87.4

> <JCHEM_ROTATABLE_BOND_COUNT>
15

> <ALOGPS_SOLUBILITY>
1.21e-04 g/l __ 

$$$$
