MF2
  Mrv0541 02231217212D          

 21 21  0  0  0  0            999 V2000
   -1.9448   -0.7420    0.0000 C   0  0  0  0  0  0  0  0  0  0  0  0
   -2.6594   -1.1545    0.0000 C   0  0  1  0  0  0  0  0  0  0  0  0
   -3.3739   -0.7420    0.0000 O   0  0  0  0  0  0  0  0  0  0  0  0
   -4.0884    0.4956    0.0000 C   0  0  0  0  0  0  0  0  0  0  0  0
   -2.6594   -1.9795    0.0000 C   0  0  0  0  0  0  0  0  0  0  0  0
   -1.2303    0.4956    0.0000 C   0  0  0  0  0  0  0  0  0  0  0  0
   -0.5158    0.0831    0.0000 C   0  0  0  0  0  0  0  0  0  0  0  0
    0.1987    0.4956    0.0000 C   0  0  0  0  0  0  0  0  0  0  0  0
    0.9133    0.0831    0.0000 C   0  0  0  0  0  0  0  0  0  0  0  0
    1.6278    0.4956    0.0000 C   0  0  0  0  0  0  0  0  0  0  0  0
    2.3423    0.0831    0.0000 C   0  0  0  0  0  0  0  0  0  0  0  0
    3.0568    0.4956    0.0000 C   0  0  0  0  0  0  0  0  0  0  0  0
    3.7714    0.0831    0.0000 C   0  0  0  0  0  0  0  0  0  0  0  0
   -1.9448    0.0831    0.0000 N   0  0  0  0  0  0  0  0  0  0  0  0
   -3.3739    0.0831    0.0000 C   0  0  2  0  0  0  0  0  0  0  0  0
   -2.6594    0.4956    0.0000 C   0  0  0  0  0  0  0  0  0  0  0  0
    4.4858    0.4956    0.0000 N   0  0  0  0  0  0  0  0  0  0  0  0
    5.2004    0.0831    0.0000 C   0  0  0  0  0  0  0  0  0  0  0  0
    5.9149    0.4956    0.0000 O   0  0  0  0  0  0  0  0  0  0  0  0
   -2.1537   -1.4465    0.0000 H   0  0  0  0  0  0  0  0  0  0  0  0
   -3.8796   -0.2089    0.0000 H   0  0  0  0  0  0  0  0  0  0  0  0
  1  2  1  0  0  0  0
  1 14  1  0  0  0  0
  2  3  1  0  0  0  0
  2  5  1  6  0  0  0
  2 20  1  1  0  0  0
  3 15  1  0  0  0  0
 15  4  1  6  0  0  0
  6  7  1  0  0  0  0
  6 14  1  0  0  0  0
  7  8  1  0  0  0  0
  8  9  1  0  0  0  0
  9 10  1  0  0  0  0
 10 11  1  0  0  0  0
 11 12  1  0  0  0  0
 12 13  1  0  0  0  0
 13 17  1  0  0  0  0
 14 16  1  0  0  0  0
 15 16  1  0  0  0  0
 15 21  1  1  0  0  0
 17 18  1  0  0  0  0
 18 19  2  0  0  0  0
M  END
> <DRUGBANK_ID>
DB04021

> <DRUG_GROUPS>
experimental

> <GENERIC_NAME>
MF268

> <CHEMICAL_FORMULA>
C15H30N2O2

> <MOLECULAR_WEIGHT>
270.4109

> <EXACT_MASS>
270.230728214

> <IUPAC_NAME>
N-{8-[(2R,6S)-2,6-dimethylmorpholin-4-yl]octyl}formamide

> <IUPAC_TRADITIONAL_NAME>
N-{8-[(2R,6S)-2,6-dimethylmorpholin-4-yl]octyl}formamide

> <INCHI_IDENTIFIER>
InChI=1S/C15H30N2O2/c1-14-11-17(12-15(2)19-14)10-8-6-4-3-5-7-9-16-13-18/h13-15H,3-12H2,1-2H3,(H,16,18)/t14-,15+

> <INCHI_KEY>
InChIKey=UXVBAZRPAJEAHR-GASCZTMLSA-N

> <SMILES>
[H][C@]1(C)CN(CCCCCCCCNC=O)C[C@@]([H])(C)O1

> <JCHEM_ACCEPTOR_COUNT>
3

> <JCHEM_DONOR_COUNT>
1

> <JCHEM_ACIDIC_PKA>
16.36

> <JCHEM_BASIC_PKA>
8.36

> <JCHEM_PHYSIOLOGICAL_CHARGE>
1

> <ALOGPS_LOGP>
2.88

> <JCHEM_LOGP>
2.13

> <ALOGPS_LOGS>
-3.2

> <JCHEM_POLARIZABILITY>
33.44

> <JCHEM_POLAR_SURFACE_AREA>
41.57

> <JCHEM_REFRACTIVITY>
78.72

> <JCHEM_ROTATABLE_BOND_COUNT>
9

> <ALOGPS_SOLUBILITY>
1.85e-01 g/l __ 

$$$$
