
  Mrv0541 02231217232D          

 28 29  0  0  0  0            999 V2000
    1.4289    0.0000    0.0000 C    0  0  0  0  0  0  0  0  0  0  0  0
    0.7145   -0.4125    0.0000 C    0  0  0  0  0  0  0  0  0  0  0  0
    0.7145   -1.2375    0.0000 N    0  3  0  0  0  0  0  0  0  0  0  0
    1.4289   -1.6500    0.0000 C    0  0  0  0  0  0  0  0  0  0  0  0
    2.1434   -1.2375    0.0000 C    0  0  0  0  0  0  0  0  0  0  0  0
    1.4289   -2.4750    0.0000 C    0  0  0  0  0  0  0  0  0  0  0  0
    2.1434   -2.8875    0.0000 C    0  0  0  0  0  0  0  0  0  0  0  0
    2.8579   -2.4750    0.0000 O    0  0  0  0  0  0  0  0  0  0  0  0
    2.1434   -3.7125    0.0000 O    0  0  0  0  0  0  0  0  0  0  0  0
    2.8579   -4.1250    0.0000 C    0  0  0  0  0  0  0  0  0  0  0  0
    3.5724   -3.7125    0.0000 C    0  0  0  0  0  0  0  0  0  0  0  0
    2.8579   -4.9500    0.0000 C    0  0  0  0  0  0  0  0  0  0  0  0
    0.7145   -2.8875    0.0000 C    0  0  0  0  0  0  0  0  0  0  0  0
    0.7145   -3.7125    0.0000 C    0  0  0  0  0  0  0  0  0  0  0  0
    1.4289   -4.1250    0.0000 C    0  0  0  0  0  0  0  0  0  0  0  0
    1.4289   -4.9500    0.0000 C    0  0  0  0  0  0  0  0  0  0  0  0
    0.7145   -5.3625    0.0000 C    0  0  0  0  0  0  0  0  0  0  0  0
    0.0000   -4.9500    0.0000 C    0  0  0  0  0  0  0  0  0  0  0  0
    0.0000   -4.1250    0.0000 C    0  0  0  0  0  0  0  0  0  0  0  0
   -0.7145   -3.7125    0.0000 Cl   0  0  0  0  0  0  0  0  0  0  0  0
    0.0000   -2.4750    0.0000 C    0  0  0  0  0  0  0  0  0  0  0  0
   -0.7145   -2.8875    0.0000 C    0  0  0  0  0  0  0  0  0  0  0  0
   -1.4289   -2.4750    0.0000 O    0  0  0  0  0  0  0  0  0  0  0  0
   -1.1994   -3.5549    0.0000 O    0  0  0  0  0  0  0  0  0  0  0  0
    0.0000   -1.6500    0.0000 C    0  0  0  0  0  0  0  0  0  0  0  0
   -0.7145   -1.2375    0.0000 C    0  0  0  0  0  0  0  0  0  0  0  0
   -0.7145   -0.4125    0.0000 O    0  0  0  0  0  0  0  0  0  0  0  0
   -1.4289   -1.6500    0.0000 O    0  0  0  0  0  0  0  0  0  0  0  0
  1  2  1  0  0  0  0
  2  3  1  0  0  0  0
  3  4  2  0  0  0  0
  4  5  1  0  0  0  0
  4  6  1  0  0  0  0
  6  7  1  0  0  0  0
  7  8  2  0  0  0  0
  7  9  1  0  0  0  0
  9 10  1  0  0  0  0
 10 11  1  0  0  0  0
 10 12  1  0  0  0  0
  6 13  2  0  0  0  0
 13 14  1  0  0  0  0
 14 15  2  0  0  0  0
 15 16  1  0  0  0  0
 16 17  2  0  0  0  0
 17 18  1  0  0  0  0
 18 19  2  0  0  0  0
 14 19  1  0  0  0  0
 19 20  1  0  0  0  0
 13 21  1  0  0  0  0
 21 22  1  0  0  0  0
 22 23  1  0  0  0  0
 22 24  2  0  0  0  0
 21 25  2  0  0  0  0
  3 25  1  0  0  0  0
 25 26  1  0  0  0  0
 26 27  1  0  0  0  0
 26 28  2  0  0  0  0
M  END
> <DRUGBANK_ID>
DB04055

> <DRUG_GROUPS>
experimental

> <GENERIC_NAME>
2,3-Dicarboxy-4-(2-Chloro-Phenyl)-1-Ethyl-5-Isopropoxycarbonyl-6-Methyl-Pyridinium

> <CHEMICAL_FORMULA>
C20H21ClNO6

> <MOLECULAR_WEIGHT>
406.837

> <EXACT_MASS>
406.105740116

> <IUPAC_NAME>
2,3-dicarboxy-4-(2-chlorophenyl)-1-ethyl-6-methyl-5-[(propan-2-yloxy)carbonyl]pyridin-1-ium

> <IUPAC_TRADITIONAL_NAME>
2,3-dicarboxy-4-(2-chlorophenyl)-1-ethyl-5-(isopropoxycarbonyl)-6-methylpyridin-1-ium

> <INCHI_IDENTIFIER>
InChI=1S/C20H20ClNO6/c1-5-22-11(4)14(20(27)28-10(2)3)15(12-8-6-7-9-13(12)21)16(18(23)24)17(22)19(25)26/h6-10H,5H2,1-4H3,(H-,23,24,25,26)/p+1

> <INCHI_KEY>
InChIKey=HMSIYRVIPQHZBI-UHFFFAOYSA-O

> <SMILES>
CC[N+]1=C(C)C(C(=O)OC(C)C)=C(C2=CC=CC=C2Cl)C(C(O)=O)=C1C(O)=O

> <JCHEM_ACCEPTOR_COUNT>
5

> <JCHEM_DONOR_COUNT>
2

> <JCHEM_ACIDIC_PKA>
2.24

> <JCHEM_BASIC_PKA>
-7.1

> <JCHEM_PHYSIOLOGICAL_CHARGE>
-1

> <ALOGPS_LOGP>
1.67

> <JCHEM_LOGP>
-0.9

> <ALOGPS_LOGS>
-5.6

> <JCHEM_POLARIZABILITY>
39.98

> <JCHEM_POLAR_SURFACE_AREA>
104.78

> <JCHEM_REFRACTIVITY>
105.17

> <JCHEM_ROTATABLE_BOND_COUNT>
6

> <ALOGPS_SOLUBILITY>
1.19e-03 g/l __ 

$$$$
