
  Mrv0541 02231217382D          

 54 53  0  0  1  0            999 V2000
    4.4645    3.1375    0.0000 C   0  0  0  0  0  0  0  0  0  0  0  0
    4.5482    3.9583    0.0000 C   0  0  0  0  0  0  0  0  0  0  0  0
    5.3008    4.2962    0.0000 C   0  0  0  0  0  0  0  0  0  0  0  0
    5.3844    5.1170    0.0000 C   0  0  0  0  0  0  0  0  0  0  0  0
    6.1370    5.4549    0.0000 C   0  0  0  0  0  0  0  0  0  0  0  0
    6.2206    6.2757    0.0000 C   0  0  0  0  0  0  0  0  0  0  0  0
    6.9732    6.6136    0.0000 C   0  0  0  0  0  0  0  0  0  0  0  0
    7.0568    7.4344    0.0000 C   0  0  0  0  0  0  0  0  0  0  0  0
    7.8094    7.7723    0.0000 C   0  0  0  0  0  0  0  0  0  0  0  0
    8.4784    7.2895    0.0000 C   0  0  0  0  0  0  0  0  0  0  0  0
    9.2310    7.6275    0.0000 C   0  0  0  0  0  0  0  0  0  0  0  0
    9.9000    7.1447    0.0000 C   0  0  0  0  0  0  0  0  0  0  0  0
   10.6526    7.4827    0.0000 C   0  0  0  0  0  0  0  0  0  0  0  0
   11.3216    6.9999    0.0000 C   0  0  0  0  0  0  0  0  0  0  0  0
   12.0742    7.3378    0.0000 C   0  0  0  0  0  0  0  0  0  0  0  0
   12.7432    6.8550    0.0000 C   0  0  0  0  0  0  0  0  0  0  0  0
   13.4958    7.1930    0.0000 C   0  0  0  0  0  0  0  0  0  0  0  0
   14.1647    6.7102    0.0000 C   0  0  0  0  0  0  0  0  0  0  0  0
   14.0811    5.8894    0.0000 O   0  0  0  0  0  0  0  0  0  0  0  0
   14.9174    7.0482    0.0000 O   0  0  0  0  0  0  0  0  0  0  0  0
   15.5863    6.5654    0.0000 C   0  0  0  0  0  0  0  0  0  0  0  0
   16.3389    6.9033    0.0000 C   0  0  1  0  0  0  0  0  0  0  0  0
   16.4226    7.7241    0.0000 C   0  0  0  0  0  0  0  0  0  0  0  0
   17.1752    8.0620    0.0000 O   0  0  0  0  0  0  0  0  0  0  0  0
   17.2588    8.8828    0.0000 P   0  0  1  0  0  0  0  0  0  0  0  0
   16.4380    8.9664    0.0000 O   0  5  0  0  0  0  0  0  0  0  0  0
   18.0795    8.7991    0.0000 O   0  0  0  0  0  0  0  0  0  0  0  0
   17.3424    9.7035    0.0000 O   0  0  0  0  0  0  0  0  0  0  0  0
   18.0950   10.0415    0.0000 C   0  0  0  0  0  0  0  0  0  0  0  0
   18.1786   10.8622    0.0000 C   0  0  0  0  0  0  0  0  0  0  0  0
   18.9312   11.2002    0.0000 N   0  3  0  0  0  0  0  0  0  0  0  0
   19.2692   10.4476    0.0000 C   0  0  0  0  0  0  0  0  0  0  0  0
   18.5933   11.9528    0.0000 C   0  0  0  0  0  0  0  0  0  0  0  0
   19.6838   11.5381    0.0000 C   0  0  0  0  0  0  0  0  0  0  0  0
   17.0079    6.4205    0.0000 O   0  0  0  0  0  0  0  0  0  0  0  0
   17.7605    6.7585    0.0000 C   0  0  0  0  0  0  0  0  0  0  0  0
   17.8441    7.5792    0.0000 O   0  0  0  0  0  0  0  0  0  0  0  0
   18.4295    6.2757    0.0000 C   0  0  0  0  0  0  0  0  0  0  0  0
   19.1821    6.6136    0.0000 C   0  0  0  0  0  0  0  0  0  0  0  0
   19.2657    7.4344    0.0000 C   0  0  0  0  0  0  0  0  0  0  0  0
   20.0183    7.7723    0.0000 C   0  0  0  0  0  0  0  0  0  0  0  0
   20.6873    7.2895    0.0000 C   0  0  0  0  0  0  0  0  0  0  0  0
   21.4399    7.6275    0.0000 C   0  0  0  0  0  0  0  0  0  0  0  0
   22.1089    7.1447    0.0000 C   0  0  0  0  0  0  0  0  0  0  0  0
   22.8615    7.4827    0.0000 C   0  0  0  0  0  0  0  0  0  0  0  0
   23.5305    6.9999    0.0000 C   0  0  0  0  0  0  0  0  0  0  0  0
   24.2831    7.3378    0.0000 C   0  0  0  0  0  0  0  0  0  0  0  0
   24.3667    8.1586    0.0000 C   0  0  0  0  0  0  0  0  0  0  0  0
   25.1193    8.4965    0.0000 C   0  0  0  0  0  0  0  0  0  0  0  0
   25.2029    9.3173    0.0000 C   0  0  0  0  0  0  0  0  0  0  0  0
   25.9555    9.6552    0.0000 C   0  0  0  0  0  0  0  0  0  0  0  0
   26.0391   10.4760    0.0000 C   0  0  0  0  0  0  0  0  0  0  0  0
   26.7917   10.8139    0.0000 C   0  0  0  0  0  0  0  0  0  0  0  0
   26.8754   11.6347    0.0000 C   0  0  0  0  0  0  0  0  0  0  0  0
  1  2  1  0  0  0  0
  2  3  1  0  0  0  0
  3  4  1  0  0  0  0
  4  5  1  0  0  0  0
  5  6  1  0  0  0  0
  6  7  2  0  0  0  0
  7  8  1  0  0  0  0
  8  9  1  0  0  0  0
  9 10  2  0  0  0  0
 10 11  1  0  0  0  0
 11 12  1  0  0  0  0
 12 13  1  0  0  0  0
 13 14  1  0  0  0  0
 14 15  1  0  0  0  0
 15 16  1  0  0  0  0
 16 17  1  0  0  0  0
 17 18  1  0  0  0  0
 18 19  2  0  0  0  0
 18 20  1  0  0  0  0
 20 21  1  0  0  0  0
 21 22  1  0  0  0  0
 22 23  1  0  0  0  0
 23 24  1  0  0  0  0
 25 24  1  6  0  0  0
 25 26  1  1  0  0  0
 25 27  2  0  0  0  0
 25 28  1  0  0  0  0
 28 29  1  0  0  0  0
 29 30  1  0  0  0  0
 30 31  1  0  0  0  0
 31 32  1  0  0  0  0
 31 33  1  0  0  0  0
 31 34  1  0  0  0  0
 22 35  1  1  0  0  0
 35 36  1  0  0  0  0
 36 37  2  0  0  0  0
 36 38  1  0  0  0  0
 38 39  1  0  0  0  0
 39 40  1  0  0  0  0
 40 41  1  0  0  0  0
 41 42  1  0  0  0  0
 42 43  1  0  0  0  0
 43 44  1  0  0  0  0
 44 45  1  0  0  0  0
 45 46  2  0  0  0  0
 46 47  1  0  0  0  0
 47 48  1  0  0  0  0
 48 49  2  0  0  0  0
 49 50  1  0  0  0  0
 50 51  1  0  0  0  0
 51 52  1  0  0  0  0
 52 53  1  0  0  0  0
 53 54  1  0  0  0  0
M  END
> <DRUGBANK_ID>
DB04372

> <DRUG_GROUPS>
experimental

> <GENERIC_NAME>
Di-Linoleoyl-3-Sn-Phosphatidylcholine

> <CHEMICAL_FORMULA>
C44H80NO8P

> <MOLECULAR_WEIGHT>
782.0817

> <EXACT_MASS>
781.562155053

> <IUPAC_NAME>
(2-{[(S)-((2S)-2,3-bis[(9E,12E)-octadeca-9,12-dienoyloxy]propyl phosphonato)]oxy}ethyl)trimethylazanium

> <IUPAC_TRADITIONAL_NAME>
(2-{[(S)-((2S)-2,3-bis[(9E,12E)-octadeca-9,12-dienoyloxy]propyl phosphonato)]oxy}ethyl)trimethylazanium

> <INCHI_IDENTIFIER>
InChI=1S/C44H80NO8P/c1-6-8-10-12-14-16-18-20-22-24-26-28-30-32-34-36-43(46)50-40-42(41-52-54(48,49)51-39-38-45(3,4)5)53-44(47)37-35-33-31-29-27-25-23-21-19-17-15-13-11-9-7-2/h14-17,20-23,42H,6-13,18-19,24-41H2,1-5H3/b16-14+,17-15+,22-20+,23-21+/t42-/m0/s1

> <INCHI_KEY>
InChIKey=FVXDQWZBHIXIEJ-QLMRABNMSA-N

> <SMILES>
CCCCC\C=C\C\C=C\CCCCCCCC(=O)OC[C@@H](CO[P@](=O)([O-])OCC[N+](C)(C)C)OC(=O)CCCCCCC\C=C\C\C=C\CCCCC

> <JCHEM_ACCEPTOR_COUNT>
4

> <JCHEM_DONOR_COUNT>
0

> <JCHEM_ACIDIC_PKA>
1.86

> <JCHEM_BASIC_PKA>
-6.7

> <JCHEM_PHYSIOLOGICAL_CHARGE>
0

> <ALOGPS_LOGP>
5.68

> <JCHEM_LOGP>
8.44

> <ALOGPS_LOGS>
-7.4

> <JCHEM_POLARIZABILITY>
95.17

> <JCHEM_POLAR_SURFACE_AREA>
111.19

> <JCHEM_REFRACTIVITY>
238.74

> <JCHEM_ROTATABLE_BOND_COUNT>
40

> <ALOGPS_SOLUBILITY>
3.16e-05 g/l __ 

$$$$
