
  Mrv0541 02231217462D          

 21 21  0  0  1  0            999 V2000
    3.5724    1.2375    0.0000 C   0  0  0  0  0  0  0  0  0  0  0  0
    2.8579    0.8250    0.0000 C   0  0  0  0  0  0  0  0  0  0  0  0
    2.8579    0.0000    0.0000 O   0  0  0  0  0  0  0  0  0  0  0  0
    2.1434    1.2375    0.0000 N   0  0  0  0  0  0  0  0  0  0  0  0
    1.4289    0.8250    0.0000 C   0  0  1  0  0  0  0  0  0  0  0  0
    1.4289    0.0000    0.0000 C   0  0  2  0  0  0  0  0  0  0  0  0
    2.1434   -0.4125    0.0000 O   0  0  0  0  0  0  0  0  0  0  0  0
    0.7145   -0.4125    0.0000 C   0  0  0  0  0  0  0  0  0  0  0  0
    0.0000    0.0000    0.0000 C   0  0  1  0  0  0  0  0  0  0  0  0
    0.0000    0.8250    0.0000 O   0  0  0  0  0  0  0  0  0  0  0  0
    0.7145    1.2375    0.0000 C   0  0  1  0  0  0  0  0  0  0  0  0
    0.7145    2.0625    0.0000 C   0  0  2  0  0  0  0  0  0  0  0  0
    1.4289    2.4750    0.0000 O   0  0  0  0  0  0  0  0  0  0  0  0
    0.0000    2.4750    0.0000 C   0  0  1  0  0  0  0  0  0  0  0  0
   -0.7145    2.0625    0.0000 O   0  0  0  0  0  0  0  0  0  0  0  0
    0.0000    3.3000    0.0000 C   0  0  0  0  0  0  0  0  0  0  0  0
   -0.7145    3.7125    0.0000 O   0  0  0  0  0  0  0  0  0  0  0  0
   -0.7145   -0.4125    0.0000 P   0  0  0  0  0  0  0  0  0  0  0  0
   -1.4289   -0.8250    0.0000 O   0  0  0  0  0  0  0  0  0  0  0  0
   -1.1270    0.3020    0.0000 O   0  0  0  0  0  0  0  0  0  0  0  0
   -0.3020   -1.1270    0.0000 O   0  0  0  0  0  0  0  0  0  0  0  0
  1  2  1  0  0  0  0
  2  3  2  0  0  0  0
  2  4  1  0  0  0  0
  5  4  1  1  0  0  0
  5  6  1  0  0  0  0
  6  7  1  6  0  0  0
  6  8  1  0  0  0  0
  8  9  1  0  0  0  0
  9 10  1  0  0  0  0
 10 11  1  0  0  0  0
  5 11  1  0  0  0  0
 11 12  1  1  0  0  0
 12 13  1  1  0  0  0
 12 14  1  0  0  0  0
 14 15  1  1  0  0  0
 14 16  1  0  0  0  0
 16 17  1  0  0  0  0
  9 18  1  6  0  0  0
 18 19  1  0  0  0  0
 18 20  1  0  0  0  0
 18 21  2  0  0  0  0
M  END
> <DRUGBANK_ID>
DB04561

> <DRUG_GROUPS>
experimental

> <GENERIC_NAME>
4-Acetamido-2,4-Didexoy-D-Glycero-Beta-D-Galacto-Octopyranosylphosphonic Acid

> <CHEMICAL_FORMULA>
C10H20NO9P

> <MOLECULAR_WEIGHT>
329.2409

> <EXACT_MASS>
329.087567755

> <IUPAC_NAME>
[(2S,4R,5S,6R)-5-acetamido-4-hydroxy-6-[(1R,2S)-1,2,3-trihydroxypropyl]oxan-2-yl]phosphonic acid

> <IUPAC_TRADITIONAL_NAME>
(2S,4R,5S,6R)-5-acetamido-4-hydroxy-6-[(1R,2S)-1,2,3-trihydroxypropyl]oxan-2-ylphosphonic acid

> <INCHI_IDENTIFIER>
InChI=1S/C10H20NO9P/c1-4(13)11-8-5(14)2-7(21(17,18)19)20-10(8)9(16)6(15)3-12/h5-10,12,14-16H,2-3H2,1H3,(H,11,13)(H2,17,18,19)/t5-,6+,7+,8+,9-,10-/m1/s1

> <INCHI_KEY>
InChIKey=QITAGYVZDNZULE-JPZACNAASA-N

> <SMILES>
CC(=O)N[C@H]1[C@H](O)C[C@@H](O[C@H]1[C@H](O)[C@@H](O)CO)P(O)(O)=O

> <JCHEM_ACCEPTOR_COUNT>
9

> <JCHEM_DONOR_COUNT>
7

> <JCHEM_ACIDIC_PKA>
1.3

> <JCHEM_BASIC_PKA>
-0.39

> <JCHEM_PHYSIOLOGICAL_CHARGE>
-1

> <ALOGPS_LOGP>
-2.4

> <JCHEM_LOGP>
-4.6

> <ALOGPS_LOGS>
-1

> <JCHEM_POLARIZABILITY>
29.01

> <JCHEM_POLAR_SURFACE_AREA>
176.78

> <JCHEM_REFRACTIVITY>
66.82

> <JCHEM_ROTATABLE_BOND_COUNT>
5

> <ALOGPS_SOLUBILITY>
2.98e+01 g/l __ 

$$$$
