FME
  Mrv0541 02231217422D          

 12 11  0  0  0  0            999 V2000
   -1.1986   -0.4648    0.0000 N   0  0  0  0  0  0  0  0  0  0  0  0
   -1.9130   -0.0524    0.0000 C   0  0  0  0  0  0  0  0  0  0  0  0
   -2.6275   -0.4648    0.0000 O   0  0  0  0  0  0  0  0  0  0  0  0
   -0.4840   -0.0524    0.0000 C   0  0  1  0  0  0  0  0  0  0  0  0
    0.2303   -0.4648    0.0000 C   0  0  0  0  0  0  0  0  0  0  0  0
    0.9448   -0.0524    0.0000 C   0  0  0  0  0  0  0  0  0  0  0  0
    1.6592   -0.4648    0.0000 S   0  0  0  0  0  0  0  0  0  0  0  0
    2.3736   -0.0524    0.0000 C   0  0  0  0  0  0  0  0  0  0  0  0
   -0.4840    0.7726    0.0000 C   0  0  0  0  0  0  0  0  0  0  0  0
    0.2303    1.1851    0.0000 O   0  0  0  0  0  0  0  0  0  0  0  0
   -1.1986    1.1851    0.0000 O   0  0  0  0  0  0  0  0  0  0  0  0
   -0.4840   -0.6362    0.0000 H   0  0  0  0  0  0  0  0  0  0  0  0
  1  2  1  0  0  0  0
  4  1  1  6  0  0  0
  2  3  2  0  0  0  0
  4  5  1  0  0  0  0
  4  9  1  0  0  0  0
  4 12  1  1  0  0  0
  5  6  1  0  0  0  0
  6  7  1  0  0  0  0
  7  8  1  0  0  0  0
  9 10  2  0  0  0  0
  9 11  1  0  0  0  0
M  END
> <DRUGBANK_ID>
DB04464

> <DRUG_GROUPS>
experimental

> <GENERIC_NAME>
N-Formylmethionine

> <CHEMICAL_FORMULA>
C6H11NO3S

> <MOLECULAR_WEIGHT>
177.221

> <EXACT_MASS>
177.045963913

> <IUPAC_NAME>
(2S)-2-formamido-4-(methylsulfanyl)butanoic acid

> <IUPAC_TRADITIONAL_NAME>
N-formylmethionine

> <INCHI_IDENTIFIER>
InChI=1S/C6H11NO3S/c1-11-3-2-5(6(9)10)7-4-8/h4-5H,2-3H2,1H3,(H,7,8)(H,9,10)/t5-/m0/s1

> <INCHI_KEY>
InChIKey=PYUSHNKNPOHWEZ-YFKPBYRVSA-N

> <SMILES>
[H][C@@](CCSC)(NC=O)C(O)=O

> <JCHEM_ACCEPTOR_COUNT>
3

> <JCHEM_DONOR_COUNT>
2

> <JCHEM_ACIDIC_PKA>
3.93

> <JCHEM_BASIC_PKA>
-0.91

> <JCHEM_PHYSIOLOGICAL_CHARGE>
-1

> <ALOGPS_LOGP>
-0.61

> <JCHEM_LOGP>
-0.16

> <ALOGPS_LOGS>
-1.3

> <JCHEM_POLARIZABILITY>
17.53

> <JCHEM_POLAR_SURFACE_AREA>
66.4

> <JCHEM_REFRACTIVITY>
42.54

> <JCHEM_ROTATABLE_BOND_COUNT>
5

> <ALOGPS_SOLUBILITY>
9.75e+00 g/l __ 

$$$$
