
  Mrv0541 02231218032D          

 48 47  0  0  1  0            999 V2000
    6.4473    0.0681    0.0000 Cl   0  0  0  0  0  0  0  0  0  0  0  0
    3.5893    0.0681    0.0000 Cl   0  0  0  0  0  0  0  0  0  0  0  0
    2.5432    3.9722    0.0000 Cl   0  0  0  0  0  0  0  0  0  0  0  0
    2.5432    1.1143    0.0000 Cl   0  0  0  0  0  0  0  0  0  0  0  0
    0.0000    5.2399    0.0000 Cl   0  0  0  0  0  0  0  0  0  0  0  0
    6.4473    5.0183    0.0000 S    0  0  0  0  0  0  0  0  0  0  0  0
    5.0183    2.5432    0.0000 P    0  0  0  0  0  0  0  0  0  0  0  0
    5.0183    3.3682    0.0000 O    0  0  0  0  0  0  0  0  0  0  0  0
    5.8433    2.5432    0.0000 O    0  0  0  0  0  0  0  0  0  0  0  0
    6.8598    4.3038    0.0000 O    0  0  0  0  0  0  0  0  0  0  0  0
    6.0348    5.7327    0.0000 O    0  0  0  0  0  0  0  0  0  0  0  0
    7.8762    7.4933    0.0000 O    0  0  0  0  0  0  0  0  0  0  0  0
    7.1617    7.9058    0.0000 O    0  0  0  0  0  0  0  0  0  0  0  0
    4.3038   10.3809    0.0000 O    0  0  0  0  0  0  0  0  0  0  0  0
    5.7327   10.3809    0.0000 O    0  0  0  0  0  0  0  0  0  0  0  0
   11.4486    7.9058    0.0000 O    0  0  0  0  0  0  0  0  0  0  0  0
   10.0197    7.9058    0.0000 O    0  0  0  0  0  0  0  0  0  0  0  0
    5.0183    1.7182    0.0000 N    0  0  0  0  0  0  0  0  0  0  0  0
    4.1932    2.5432    0.0000 N    0  0  0  0  0  0  0  0  0  0  0  0
    6.4473    6.6683    0.0000 N    0  0  0  0  0  0  0  0  0  0  0  0
    8.5907    6.2558    0.0000 N    0  0  0  0  0  0  0  0  0  0  0  0
    4.3038    8.7308    0.0000 N    0  0  0  0  0  0  0  0  0  0  0  0
    5.7327    4.6057    0.0000 C    0  0  0  0  0  0  0  0  0  0  0  0
    7.1617    5.4308    0.0000 C    0  0  0  0  0  0  0  0  0  0  0  0
    5.7327    3.7807    0.0000 C    0  0  0  0  0  0  0  0  0  0  0  0
    7.1617    6.2558    0.0000 C    0  0  0  0  0  0  0  0  0  0  0  0
    5.7327    1.3057    0.0000 C    0  0  0  0  0  0  0  0  0  0  0  0
    4.3038    1.3057    0.0000 C    0  0  0  0  0  0  0  0  0  0  0  0
    3.7807    3.2577    0.0000 C    0  0  0  0  0  0  0  0  0  0  0  0
    3.7807    1.8287    0.0000 C    0  0  0  0  0  0  0  0  0  0  0  0
    7.8762    6.6683    0.0000 C    0  0  0  0  0  0  0  0  0  0  0  0
    5.7327    0.4807    0.0000 C    0  0  0  0  0  0  0  0  0  0  0  0
    4.3038    0.4807    0.0000 C    0  0  0  0  0  0  0  0  0  0  0  0
    2.9557    3.2577    0.0000 C    0  0  0  0  0  0  0  0  0  0  0  0
    2.9557    1.8287    0.0000 C    0  0  0  0  0  0  0  0  0  0  0  0
    6.4473    7.4933    0.0000 C    0  0  0  0  0  0  0  0  0  0  0  0
    5.7327    7.9058    0.0000 C    0  0  0  0  0  0  0  0  0  0  0  0
    5.7327    8.7308    0.0000 C    0  0  0  0  0  0  0  0  0  0  0  0
    9.3052    6.6683    0.0000 C    0  0  0  0  0  0  0  0  0  0  0  0
    5.0183    9.1433    0.0000 C    0  0  0  0  0  0  0  0  0  0  0  0
   10.0197    6.2558    0.0000 C    0  0  0  0  0  0  0  0  0  0  0  0
   10.7341    6.6683    0.0000 C    0  0  0  0  0  0  0  0  0  0  0  0
    5.0183    9.9684    0.0000 C    0  0  0  0  0  0  0  0  0  0  0  0
   10.0197    5.4308    0.0000 C    0  0  0  0  0  0  0  0  0  0  0  0
   11.4486    6.2558    0.0000 C    0  0  0  0  0  0  0  0  0  0  0  0
   10.7341    5.0183    0.0000 C    0  0  0  0  0  0  0  0  0  0  0  0
   11.4486    5.4308    0.0000 C    0  0  0  0  0  0  0  0  0  0  0  0
   10.7341    7.4933    0.0000 C    0  0  0  0  0  0  0  0  0  0  0  0
  1 32  1  0  0  0  0
  2 33  1  0  0  0  0
  3 34  1  0  0  0  0
  4 35  1  0  0  0  0
  6 10  2  0  0  0  0
  6 11  2  0  0  0  0
  6 23  1  0  0  0  0
  6 24  1  0  0  0  0
  7  8  1  0  0  0  0
  7  9  2  0  0  0  0
  7 18  1  0  0  0  0
  7 19  1  0  0  0  0
  8 25  1  0  0  0  0
 12 31  2  0  0  0  0
 13 36  2  0  0  0  0
 14 43  1  0  0  0  0
 15 43  2  0  0  0  0
 16 48  1  0  0  0  0
 17 48  2  0  0  0  0
 18 27  1  0  0  0  0
 18 28  1  0  0  0  0
 19 29  1  0  0  0  0
 19 30  1  0  0  0  0
 20 26  1  0  0  0  0
 20 36  1  0  0  0  0
 21 31  1  0  0  0  0
 21 39  1  0  0  0  0
 22 40  1  0  0  0  0
 23 25  1  0  0  0  0
 24 26  1  0  0  0  0
 26 31  1  0  0  0  0
 27 32  1  0  0  0  0
 28 33  1  0  0  0  0
 29 34  1  0  0  0  0
 30 35  1  0  0  0  0
 36 37  1  0  0  0  0
 37 38  1  0  0  0  0
 38 40  1  0  0  0  0
 39 41  1  0  0  0  0
 40 43  1  0  0  0  0
 41 42  1  0  0  0  0
 41 44  2  0  0  0  0
 42 45  2  0  0  0  0
 42 48  1  0  0  0  0
 44 46  1  0  0  0  0
 45 47  1  0  0  0  0
 46 47  2  0  0  0  0
M  END
> <DRUGBANK_ID>
DB04972

> <DRUG_GROUPS>
investigational

> <GENERIC_NAME>
Canfosfamide

> <SALTS>
Canfosfamide Hydrochloride

> <BRANDS>
Telcyta

> <CHEMICAL_FORMULA>
C26H41Cl5N5O10PS

> <MOLECULAR_WEIGHT>
823.935

> <EXACT_MASS>
821.075438294

> <IUPAC_NAME>
2-{[2-(4-amino-4-carboxybutanamido)-3-{[2-({bis[bis(2-chloroethyl)amino]phosphoryl}oxy)ethane]sulfonyl}propanamido]methyl}benzoic acid hydrochloride

> <IUPAC_TRADITIONAL_NAME>
2-{[2-(4-amino-4-carboxybutanamido)-3-[2-({bis[bis(2-chloroethyl)amino]phosphoryl}oxy)ethanesulfonyl]propanamido]methyl}benzoic acid hydrochloride

> <INCHI_IDENTIFIER>
InChI=1S/C26H40Cl4N5O10PS.ClH/c27-7-11-34(12-8-28)46(42,35(13-9-29)14-10-30)45-15-16-47(43,44)18-22(33-23(36)6-5-21(31)26(40)41)24(37)32-17-19-3-1-2-4-20(19)25(38)39;/h1-4,21-22H,5-18,31H2,(H,32,37)(H,33,36)(H,38,39)(H,40,41);1H

> <INCHI_KEY>
InChIKey=KCMFHEVIGACFOM-UHFFFAOYSA-N

> <SMILES>
Cl.NC(CCC(=O)NC(CS(=O)(=O)CCOP(=O)(N(CCCl)CCCl)N(CCCl)CCCl)C(=O)NCC1=CC=CC=C1C(O)=O)C(O)=O

> <JCHEM_ACCEPTOR_COUNT>
11

> <JCHEM_DONOR_COUNT>
5

> <JCHEM_ACIDIC_PKA>
1.4

> <JCHEM_BASIC_PKA>
8.91

> <JCHEM_PHYSIOLOGICAL_CHARGE>
-1

> <JCHEM_LOGP>
-2.9

> <JCHEM_POLARIZABILITY>
74.81

> <JCHEM_POLAR_SURFACE_AREA>
225.74

> <JCHEM_REFRACTIVITY>
177.19

> <JCHEM_ROTATABLE_BOND_COUNT>
25 __ 

$$$$
