
  Mrv0541 02231217432D          

 41 44  0  0  1  0            999 V2000
    1.5971   -3.0967    0.0000 C   0  0  0  0  0  0  0  0  0  0  0  0
    0.8826   -2.6842    0.0000 C   0  0  0  0  0  0  0  0  0  0  0  0
    0.1681   -3.0967    0.0000 O   0  0  0  0  0  0  0  0  0  0  0  0
    0.8826   -1.8592    0.0000 N   0  0  0  0  0  0  0  0  0  0  0  0
    1.5971   -1.4467    0.0000 C   0  0  1  0  0  0  0  0  0  0  0  0
    1.5971   -0.6217    0.0000 C   0  0  0  0  0  0  0  0  0  0  0  0
    0.8826   -0.2092    0.0000 C   0  0  0  0  0  0  0  0  0  0  0  0
    0.1681   -0.6217    0.0000 C   0  0  0  0  0  0  0  0  0  0  0  0
   -0.5463   -0.2092    0.0000 C   0  0  0  0  0  0  0  0  0  0  0  0
   -0.5463    0.6158    0.0000 C   0  0  0  0  0  0  0  0  0  0  0  0
   -1.2608    1.0283    0.0000 O   0  0  0  0  0  0  0  0  0  0  0  0
   -1.2608    1.8533    0.0000 P   0  0  0  0  0  0  0  0  0  0  0  0
   -1.2608    2.6783    0.0000 O   0  0  0  0  0  0  0  0  0  0  0  0
   -2.0858    1.8533    0.0000 O   0  0  0  0  0  0  0  0  0  0  0  0
   -0.4358    1.8533    0.0000 O   0  0  0  0  0  0  0  0  0  0  0  0
    0.1681    1.0283    0.0000 C   0  0  0  0  0  0  0  0  0  0  0  0
    0.8826    0.6158    0.0000 C   0  0  0  0  0  0  0  0  0  0  0  0
    2.3116   -1.8592    0.0000 C   0  0  0  0  0  0  0  0  0  0  0  0
    3.0260   -1.4467    0.0000 O   0  0  0  0  0  0  0  0  0  0  0  0
    2.3116   -2.6842    0.0000 N   0  0  0  0  0  0  0  0  0  0  0  0
    3.0260   -3.0967    0.0000 C   0  0  2  0  0  0  0  0  0  0  0  0
    3.7077   -2.6319    0.0000 C   0  0  0  0  0  0  0  0  0  0  0  0
    4.4960   -2.8751    0.0000 C   0  0  0  0  0  0  0  0  0  0  0  0
    4.7974   -3.6431    0.0000 C   0  0  0  0  0  0  0  0  0  0  0  0
    4.3849   -4.3575    0.0000 C   0  0  0  0  0  0  0  0  0  0  0  0
    3.5691   -4.4805    0.0000 N   0  0  0  0  0  0  0  0  0  0  0  0
    3.3260   -5.2688    0.0000 C   0  0  0  0  0  0  0  0  0  0  0  0
    3.8871   -5.8736    0.0000 C   0  0  0  0  0  0  0  0  0  0  0  0
    4.6914   -5.6900    0.0000 C   0  0  0  0  0  0  0  0  0  0  0  0
    5.2526   -6.2948    0.0000 C   0  0  0  0  0  0  0  0  0  0  0  0
    5.0094   -7.0831    0.0000 C   0  0  0  0  0  0  0  0  0  0  0  0
    4.2051   -7.2667    0.0000 C   0  0  0  0  0  0  0  0  0  0  0  0
    3.6439   -6.6620    0.0000 C   0  0  0  0  0  0  0  0  0  0  0  0
    5.5705   -7.6879    0.0000 C   0  0  0  0  0  0  0  0  0  0  0  0
    6.3749   -7.5043    0.0000 C   0  0  0  0  0  0  0  0  0  0  0  0
    6.9360   -8.1091    0.0000 C   0  0  0  0  0  0  0  0  0  0  0  0
    6.6928   -8.8974    0.0000 C   0  0  0  0  0  0  0  0  0  0  0  0
    5.8885   -9.0810    0.0000 C   0  0  0  0  0  0  0  0  0  0  0  0
    5.3274   -8.4763    0.0000 C   0  0  0  0  0  0  0  0  0  0  0  0
    2.9644   -3.9193    0.0000 C   0  0  0  0  0  0  0  0  0  0  0  0
    2.1964   -4.2208    0.0000 O   0  0  0  0  0  0  0  0  0  0  0  0
  1  2  1  0  0  0  0
  2  3  2  0  0  0  0
  2  4  1  0  0  0  0
  5  4  1  1  0  0  0
  5  6  1  0  0  0  0
  6  7  1  0  0  0  0
  7  8  2  0  0  0  0
  8  9  1  0  0  0  0
  9 10  2  0  0  0  0
 10 11  1  0  0  0  0
 11 12  1  0  0  0  0
 12 13  1  0  0  0  0
 12 14  1  0  0  0  0
 12 15  2  0  0  0  0
 10 16  1  0  0  0  0
 16 17  2  0  0  0  0
  7 17  1  0  0  0  0
  5 18  1  0  0  0  0
 18 19  2  0  0  0  0
 18 20  1  0  0  0  0
 21 20  1  6  0  0  0
 21 22  1  0  0  0  0
 22 23  1  0  0  0  0
 23 24  1  0  0  0  0
 24 25  1  0  0  0  0
 25 26  1  0  0  0  0
 26 27  1  0  0  0  0
 27 28  1  0  0  0  0
 28 29  2  0  0  0  0
 29 30  1  0  0  0  0
 30 31  2  0  0  0  0
 31 32  1  0  0  0  0
 32 33  2  0  0  0  0
 28 33  1  0  0  0  0
 31 34  1  0  0  0  0
 34 35  2  0  0  0  0
 35 36  1  0  0  0  0
 36 37  2  0  0  0  0
 37 38  1  0  0  0  0
 38 39  2  0  0  0  0
 34 39  1  0  0  0  0
 26 40  1  0  0  0  0
 21 40  1  0  0  0  0
 40 41  2  0  0  0  0
M  END
> <DRUGBANK_ID>
DB04495

> <DRUG_GROUPS>
experimental

> <GENERIC_NAME>
RU81843

> <CHEMICAL_FORMULA>
C30H34N3O7P

> <MOLECULAR_WEIGHT>
579.5806

> <EXACT_MASS>
579.213436969

> <IUPAC_NAME>
{4-[(2S)-2-acetamido-2-{[(3R)-2-oxo-1-[(4-phenylphenyl)methyl]azepan-3-yl]carbamoyl}ethyl]phenoxy}phosphonic acid

> <IUPAC_TRADITIONAL_NAME>
4-[(2S)-2-acetamido-2-{[(3R)-2-oxo-1-[(4-phenylphenyl)methyl]azepan-3-yl]carbamoyl}ethyl]phenoxyphosphonic acid

> <INCHI_IDENTIFIER>
InChI=1S/C30H34N3O7P/c1-21(34)31-28(19-22-12-16-26(17-13-22)40-41(37,38)39)29(35)32-27-9-5-6-18-33(30(27)36)20-23-10-14-25(15-11-23)24-7-3-2-4-8-24/h2-4,7-8,10-17,27-28H,5-6,9,18-20H2,1H3,(H,31,34)(H,32,35)(H2,37,38,39)/t27-,28+/m1/s1

> <INCHI_KEY>
InChIKey=GGPXNASQNUOIPB-IZLXSDGUSA-N

> <SMILES>
CC(=O)N[C@@H](CC1=CC=C(OP(O)(O)=O)C=C1)C(=O)N[C@@H]1CCCCN(CC2=CC=C(C=C2)C2=CC=CC=C2)C1=O

> <JCHEM_ACCEPTOR_COUNT>
6

> <JCHEM_DONOR_COUNT>
4

> <JCHEM_ACIDIC_PKA>
1.79

> <JCHEM_BASIC_PKA>
-1.4

> <JCHEM_PHYSIOLOGICAL_CHARGE>
-2

> <ALOGPS_LOGP>
2.68

> <JCHEM_LOGP>
2.91

> <ALOGPS_LOGS>
-5.9

> <JCHEM_POLARIZABILITY>
59.75

> <JCHEM_POLAR_SURFACE_AREA>
145.27

> <JCHEM_REFRACTIVITY>
153.47

> <JCHEM_ROTATABLE_BOND_COUNT>
10

> <ALOGPS_SOLUBILITY>
6.64e-04 g/l __ 

$$$$
