
  Mrv0541 02231217362D          

 41 46  0  0  1  0            999 V2000
   -0.7145   -0.4125    0.0000 C    0  0  0  0  0  0  0  0  0  0  0  0
    0.0000    0.0000    0.0000 C    0  0  0  0  0  0  0  0  0  0  0  0
    0.0000    0.8250    0.0000 C    0  0  0  0  0  0  0  0  0  0  0  0
    0.7145    1.2375    0.0000 C    0  0  0  0  0  0  0  0  0  0  0  0
    1.4289    0.8250    0.0000 C    0  0  0  0  0  0  0  0  0  0  0  0
    2.2136    1.0799    0.0000 C    0  0  0  0  0  0  0  0  0  0  0  0
    2.4685    1.8646    0.0000 O    0  0  0  0  0  0  0  0  0  0  0  0
    2.6985    0.4125    0.0000 C    0  0  1  0  0  0  0  0  0  0  0  0
    3.1834    1.0799    0.0000 O    0  0  0  0  0  0  0  0  0  0  0  0
    3.9680    0.8250    0.0000 C    0  0  1  0  0  0  0  0  0  0  0  0
    3.9680    0.0000    0.0000 C    0  0  2  0  0  0  0  0  0  0  0  0
    3.1834   -0.2549    0.0000 C    0  0  2  0  0  0  0  0  0  0  0  0
    2.9285   -1.0396    0.0000 C    0  0  0  0  0  0  0  0  0  0  0  0
    2.1215   -1.2111    0.0000 O    0  0  0  0  0  0  0  0  0  0  0  0
    3.4805   -1.6527    0.0000 O    0  0  0  0  0  0  0  0  0  0  0  0
    4.6355   -0.4849    0.0000 C    0  0  0  0  0  0  0  0  0  0  0  0
    4.5492   -1.3054    0.0000 O    0  0  0  0  0  0  0  0  0  0  0  0
    5.3891   -0.1494    0.0000 N    0  0  0  0  0  0  0  0  0  0  0  0
    6.0566   -0.6343    0.0000 C    0  0  0  0  0  0  0  0  0  0  0  0
    6.8103   -0.2987    0.0000 C    0  0  0  0  0  0  0  0  0  0  0  0
    7.4777   -0.7837    0.0000 C    0  0  0  0  0  0  0  0  0  0  0  0
    7.3915   -1.6041    0.0000 C    0  0  0  0  0  0  0  0  0  0  0  0
    6.6378   -1.9397    0.0000 C    0  0  0  0  0  0  0  0  0  0  0  0
    5.9703   -1.4548    0.0000 C    0  0  0  0  0  0  0  0  0  0  0  0
    8.0589   -2.0891    0.0000 C    0  0  0  0  0  0  0  0  0  0  0  0
    8.8435   -1.8341    0.0000 C    0  0  0  0  0  0  0  0  0  0  0  0
    9.3284   -2.5016    0.0000 S    0  0  0  0  0  0  0  0  0  0  0  0
    8.8435   -3.1690    0.0000 N    0  0  0  0  0  0  0  0  0  0  0  0
    8.0589   -2.9141    0.0000 N    0  0  0  0  0  0  0  0  0  0  0  0
    4.6355    1.3099    0.0000 C    0  0  0  0  0  0  0  0  0  0  0  0
    4.5492    2.1304    0.0000 C    0  0  0  0  0  0  0  0  0  0  0  0
    5.2167    2.6153    0.0000 C    0  0  0  0  0  0  0  0  0  0  0  0
    5.9703    2.2798    0.0000 C    0  0  0  0  0  0  0  0  0  0  0  0
    6.6378    2.7647    0.0000 Cl   0  0  0  0  0  0  0  0  0  0  0  0
    6.0566    1.4593    0.0000 C    0  0  0  0  0  0  0  0  0  0  0  0
    6.8103    1.1237    0.0000 Cl   0  0  0  0  0  0  0  0  0  0  0  0
    5.3891    0.9744    0.0000 C    0  0  0  0  0  0  0  0  0  0  0  0
    2.2136   -0.2549    0.0000 C    0  0  0  0  0  0  0  0  0  0  0  0
    1.7286   -0.9224    0.0000 O    0  0  0  0  0  0  0  0  0  0  0  0
    1.4289    0.0000    0.0000 C    0  0  0  0  0  0  0  0  0  0  0  0
    0.7145   -0.4125    0.0000 C    0  0  0  0  0  0  0  0  0  0  0  0
  1  2  1  0  0  0  0
  2  3  2  0  0  0  0
  3  4  1  0  0  0  0
  4  5  2  0  0  0  0
  5  6  1  0  0  0  0
  6  7  2  0  0  0  0
  6  8  1  0  0  0  0
  8  9  1  6  0  0  0
  9 10  1  0  0  0  0
 10 11  1  0  0  0  0
 11 12  1  0  0  0  0
  8 12  1  0  0  0  0
 12 13  1  6  0  0  0
 13 14  1  0  0  0  0
 13 15  2  0  0  0  0
 11 16  1  1  0  0  0
 16 17  2  0  0  0  0
 16 18  1  0  0  0  0
 18 19  1  0  0  0  0
 19 20  2  0  0  0  0
 20 21  1  0  0  0  0
 21 22  2  0  0  0  0
 22 23  1  0  0  0  0
 23 24  2  0  0  0  0
 19 24  1  0  0  0  0
 22 25  1  0  0  0  0
 25 26  2  0  0  0  0
 26 27  1  0  0  0  0
 27 28  1  0  0  0  0
 28 29  2  0  0  0  0
 25 29  1  0  0  0  0
 10 30  1  6  0  0  0
 30 31  2  0  0  0  0
 31 32  1  0  0  0  0
 32 33  2  0  0  0  0
 33 34  1  0  0  0  0
 33 35  1  0  0  0  0
 35 36  1  0  0  0  0
 35 37  2  0  0  0  0
 30 37  1  0  0  0  0
  8 38  1  0  0  0  0
 38 39  2  0  0  0  0
 38 40  1  0  0  0  0
  5 40  1  0  0  0  0
 40 41  2  0  0  0  0
  2 41  1  0  0  0  0
M  END
> <DRUGBANK_ID>
DB04330

> <DRUG_GROUPS>
experimental

> <GENERIC_NAME>
Bilh 434

> <CHEMICAL_FORMULA>
C29H19Cl2N3O6S

> <MOLECULAR_WEIGHT>
608.449

> <EXACT_MASS>
607.037161459

> <IUPAC_NAME>
(2S,3'S,4'S,5'S)-5'-(3,4-dichlorophenyl)-6-methyl-1,3-dioxo-4'-{[4-(1,2,3-thiadiazol-4-yl)phenyl]carbamoyl}-1,3-dihydrospiro[indene-2,2'-oxolane]-3'-carboxylic acid

> <IUPAC_TRADITIONAL_NAME>
(2S,3'S,4'S,5'S)-5'-(3,4-dichlorophenyl)-6-methyl-1,3-dioxo-4'-{[4-(1,2,3-thiadiazol-4-yl)phenyl]carbamoyl}spiro[indene-2,2'-oxolane]-3'-carboxylic acid

> <INCHI_IDENTIFIER>
InChI=1S/C29H19Cl2N3O6S/c1-13-2-8-17-18(10-13)26(36)29(25(17)35)23(28(38)39)22(24(40-29)15-5-9-19(30)20(31)11-15)27(37)32-16-6-3-14(4-7-16)21-12-41-34-33-21/h2-12,22-24H,1H3,(H,32,37)(H,38,39)/t22-,23+,24+,29-/m0/s1

> <INCHI_KEY>
InChIKey=KNRVCCXHLSHTFW-SEAFADMZSA-N

> <SMILES>
CC1=CC=C2C(=O)[C@]3(O[C@@H]([C@H]([C@@H]3C(O)=O)C(=O)NC3=CC=C(C=C3)C3=CSN=N3)C3=CC=C(Cl)C(Cl)=C3)C(=O)C2=C1

> <JCHEM_ACCEPTOR_COUNT>
8

> <JCHEM_DONOR_COUNT>
2

> <JCHEM_ACIDIC_PKA>
3.92

> <JCHEM_BASIC_PKA>
-0.45

> <JCHEM_PHYSIOLOGICAL_CHARGE>
-1

> <ALOGPS_LOGP>
5.06

> <JCHEM_LOGP>
5.93

> <ALOGPS_LOGS>
-5.9

> <JCHEM_POLARIZABILITY>
60.25

> <JCHEM_POLAR_SURFACE_AREA>
135.55

> <JCHEM_REFRACTIVITY>
152.6

> <JCHEM_ROTATABLE_BOND_COUNT>
5

> <ALOGPS_SOLUBILITY>
7.42e-04 g/l __ 

$$$$
