BHG
  Mrv0541 02231217282D          

 23 23  0  0  0  0            999 V2000
   -0.5339    0.1729    0.0000 C   0  0  1  0  0  0  0  0  0  0  0  0
    0.1805    0.5854    0.0000 O   0  0  0  0  0  0  0  0  0  0  0  0
   -0.5339   -0.6521    0.0000 C   0  0  2  0  0  0  0  0  0  0  0  0
    0.1805   -1.0646    0.0000 O   0  0  0  0  0  0  0  0  0  0  0  0
   -1.2484   -1.0646    0.0000 C   0  0  1  0  0  0  0  0  0  0  0  0
   -1.2484   -1.8896    0.0000 O   0  0  0  0  0  0  0  0  0  0  0  0
   -1.9629   -0.6521    0.0000 C   0  0  1  0  0  0  0  0  0  0  0  0
   -2.6774   -1.0646    0.0000 O   0  0  0  0  0  0  0  0  0  0  0  0
   -1.9629    0.1729    0.0000 C   0  0  2  0  0  0  0  0  0  0  0  0
   -1.2484    0.5854    0.0000 O   0  0  0  0  0  0  0  0  0  0  0  0
   -2.6774    0.5854    0.0000 C   0  0  0  0  0  0  0  0  0  0  0  0
   -2.6774    1.4104    0.0000 O   0  0  0  0  0  0  0  0  0  0  0  0
    0.8950    0.1729    0.0000 C   0  0  0  0  0  0  0  0  0  0  0  0
    1.6095    0.5854    0.0000 C   0  0  0  0  0  0  0  0  0  0  0  0
    2.3239    0.1729    0.0000 C   0  0  0  0  0  0  0  0  0  0  0  0
    3.0384    0.5854    0.0000 C   0  0  0  0  0  0  0  0  0  0  0  0
    3.7529    0.1729    0.0000 C   0  0  0  0  0  0  0  0  0  0  0  0
    4.4674    0.5854    0.0000 C   0  0  0  0  0  0  0  0  0  0  0  0
    0.0411    0.0715    0.0000 H   0  0  0  0  0  0  0  0  0  0  0  0
    0.0411   -0.5507    0.0000 H   0  0  0  0  0  0  0  0  0  0  0  0
   -0.7427   -1.3566    0.0000 H   0  0  0  0  0  0  0  0  0  0  0  0
   -1.9629   -1.2361    0.0000 H   0  0  0  0  0  0  0  0  0  0  0  0
   -2.4686   -0.1191    0.0000 H   0  0  0  0  0  0  0  0  0  0  0  0
  1  2  1  1  0  0  0
  1  3  1  0  0  0  0
  1 10  1  0  0  0  0
  1 19  1  6  0  0  0
  2 13  1  0  0  0  0
  3  4  1  6  0  0  0
  3  5  1  0  0  0  0
  3 20  1  1  0  0  0
  5  6  1  1  0  0  0
  5  7  1  0  0  0  0
  5 21  1  6  0  0  0
  7  8  1  1  0  0  0
  7  9  1  0  0  0  0
  7 22  1  6  0  0  0
  9 10  1  0  0  0  0
  9 11  1  1  0  0  0
  9 23  1  6  0  0  0
 11 12  1  0  0  0  0
 13 14  1  0  0  0  0
 14 15  1  0  0  0  0
 15 16  1  0  0  0  0
 16 17  1  0  0  0  0
 17 18  1  0  0  0  0
M  END
> <DRUGBANK_ID>
DB04141

> <DRUG_GROUPS>
experimental

> <GENERIC_NAME>
2-Hexyloxy-6-Hydroxymethyl-Tetrahydro-Pyran-3,4,5-Triol

> <CHEMICAL_FORMULA>
C12H24O6

> <MOLECULAR_WEIGHT>
264.3154

> <EXACT_MASS>
264.1572885

> <IUPAC_NAME>
(2R,3R,4S,5R,6R)-2-(hexyloxy)-6-(hydroxymethyl)oxane-3,4,5-triol

> <IUPAC_TRADITIONAL_NAME>
(2R,3R,4S,5R,6R)-2-(hexyloxy)-6-(hydroxymethyl)oxane-3,4,5-triol

> <INCHI_IDENTIFIER>
InChI=1S/C12H24O6/c1-2-3-4-5-6-17-12-11(16)10(15)9(14)8(7-13)18-12/h8-16H,2-7H2,1H3/t8-,9+,10+,11-,12-/m1/s1

> <INCHI_KEY>
InChIKey=JVAZJLFFSJARQM-YBXAARCKSA-N

> <SMILES>
[H][C@]1(O)[C@@]([H])(O)[C@@]([H])(CO)O[C@@]([H])(OCCCCCC)[C@]1([H])O

> <JCHEM_ACCEPTOR_COUNT>
6

> <JCHEM_DONOR_COUNT>
4

> <JCHEM_ACIDIC_PKA>
12.21

> <JCHEM_BASIC_PKA>
-3

> <JCHEM_PHYSIOLOGICAL_CHARGE>
0

> <ALOGPS_LOGP>
0.14

> <JCHEM_LOGP>
-0.076

> <ALOGPS_LOGS>
-0.67

> <JCHEM_POLARIZABILITY>
28.02

> <JCHEM_POLAR_SURFACE_AREA>
99.38

> <JCHEM_REFRACTIVITY>
63.75

> <JCHEM_ROTATABLE_BOND_COUNT>
7

> <ALOGPS_SOLUBILITY>
5.70e+01 g/l __ 

$$$$
