
  Mrv0541 02231217462D          

 23 25  0  0  1  0            999 V2000
    0.1687    1.9482    0.0000 C   0  0  0  0  0  0  0  0  0  0  0  0
   -0.6383    1.7766    0.0000 C   0  0  0  0  0  0  0  0  0  0  0  0
   -1.1903    2.3897    0.0000 C   0  0  0  0  0  0  0  0  0  0  0  0
   -0.8932    0.9920    0.0000 C   0  0  1  0  0  0  0  0  0  0  0  0
   -1.6469    1.3276    0.0000 C   0  0  0  0  0  0  0  0  0  0  0  0
   -0.0862    0.8205    0.0000 N   0  0  0  0  0  0  0  0  0  0  0  0
    0.0000    0.0000    0.0000 C   0  0  0  0  0  0  0  0  0  0  0  0
   -0.7537   -0.3356    0.0000 N   0  0  0  0  0  0  0  0  0  0  0  0
   -1.3057    0.2775    0.0000 C   0  0  0  0  0  0  0  0  0  0  0  0
   -2.1262    0.1913    0.0000 O   0  0  0  0  0  0  0  0  0  0  0  0
    0.7145   -0.4125    0.0000 C   0  0  0  0  0  0  0  0  0  0  0  0
    1.4289    0.0000    0.0000 N   0  0  0  0  0  0  0  0  0  0  0  0
    2.1434   -0.4125    0.0000 C   0  0  0  0  0  0  0  0  0  0  0  0
    2.8579    0.0000    0.0000 C   0  0  0  0  0  0  0  0  0  0  0  0
    3.5724   -0.4125    0.0000 C   0  0  0  0  0  0  0  0  0  0  0  0
    3.5724   -1.2375    0.0000 C   0  0  0  0  0  0  0  0  0  0  0  0
    2.8579   -1.6500    0.0000 C   0  0  0  0  0  0  0  0  0  0  0  0
    2.1434   -1.2375    0.0000 C   0  0  0  0  0  0  0  0  0  0  0  0
    1.4289   -1.6500    0.0000 C   0  0  0  0  0  0  0  0  0  0  0  0
    0.7145   -1.2375    0.0000 C   0  0  0  0  0  0  0  0  0  0  0  0
    0.0000   -1.6500    0.0000 C   0  0  0  0  0  0  0  0  0  0  0  0
   -0.7145   -1.2375    0.0000 O   0  0  0  0  0  0  0  0  0  0  0  0
    0.0000   -2.4750    0.0000 O   0  0  0  0  0  0  0  0  0  0  0  0
  1  2  1  0  0  0  0
  2  3  1  0  0  0  0
  4  2  1  1  0  0  0
  4  5  1  6  0  0  0
  4  6  1  0  0  0  0
  6  7  2  0  0  0  0
  7  8  1  0  0  0  0
  8  9  1  0  0  0  0
  4  9  1  0  0  0  0
  9 10  2  0  0  0  0
  7 11  1  0  0  0  0
 11 12  2  0  0  0  0
 12 13  1  0  0  0  0
 13 14  2  0  0  0  0
 14 15  1  0  0  0  0
 15 16  2  0  0  0  0
 16 17  1  0  0  0  0
 17 18  2  0  0  0  0
 13 18  1  0  0  0  0
 18 19  1  0  0  0  0
 19 20  2  0  0  0  0
 11 20  1  0  0  0  0
 20 21  1  0  0  0  0
 21 22  1  0  0  0  0
 21 23  2  0  0  0  0
M  END
> <DRUGBANK_ID>
DB04582

> <DRUG_GROUPS>
experimental

> <GENERIC_NAME>
IMAZAQUIN

> <CHEMICAL_FORMULA>
C17H17N3O3

> <MOLECULAR_WEIGHT>
311.3352

> <EXACT_MASS>
311.126991425

> <IUPAC_NAME>
2-[(4R)-4-methyl-5-oxo-4-(propan-2-yl)-4,5-dihydro-1H-imidazol-2-yl]quinoline-3-carboxylic acid

> <IUPAC_TRADITIONAL_NAME>
imazaquin

> <INCHI_IDENTIFIER>
InChI=1S/C17H17N3O3/c1-9(2)17(3)16(23)19-14(20-17)13-11(15(21)22)8-10-6-4-5-7-12(10)18-13/h4-9H,1-3H3,(H,21,22)(H,19,20,23)/t17-/m1/s1

> <INCHI_KEY>
InChIKey=CABMTIJINOIHOD-QGZVFWFLSA-N

> <SMILES>
CC(C)[C@@]1(C)N=C(NC1=O)C1=NC2=CC=CC=C2C=C1C(O)=O

> <JCHEM_ACCEPTOR_COUNT>
5

> <JCHEM_DONOR_COUNT>
2

> <JCHEM_ACIDIC_PKA>
3.67

> <JCHEM_BASIC_PKA>
1.77

> <JCHEM_PHYSIOLOGICAL_CHARGE>
-1

> <ALOGPS_LOGP>
2.58

> <JCHEM_LOGP>
2.73

> <ALOGPS_LOGS>
-3.7

> <JCHEM_POLARIZABILITY>
32.82

> <JCHEM_POLAR_SURFACE_AREA>
91.65

> <JCHEM_REFRACTIVITY>
84.11

> <JCHEM_ROTATABLE_BOND_COUNT>
3

> <ALOGPS_SOLUBILITY>
6.04e-02 g/l __ 

$$$$
