PB4
  Mrv0541 02231217532D          

 30 32  0  0  0  0            999 V2000
   -0.5473    0.7414    0.0000 C   0  0  0  0  0  0  0  0  0  0  0  0
    0.1672    0.3289    0.0000 C   0  0  0  0  0  0  0  0  0  0  0  0
    0.1672   -0.4961    0.0000 C   0  0  0  0  0  0  0  0  0  0  0  0
    0.1672   -4.6211    0.0000 C   0  0  0  0  0  0  0  0  0  0  0  0
   -2.6907    2.8039    0.0000 C   0  0  0  0  0  0  0  0  0  0  0  0
    0.8817   -0.9086    0.0000 C   0  0  0  0  0  0  0  0  0  0  0  0
    1.5961   -2.1461    0.0000 C   0  0  0  0  0  0  0  0  0  0  0  0
    1.5961   -2.9711    0.0000 C   0  0  0  0  0  0  0  0  0  0  0  0
   -0.5473    1.5664    0.0000 C   0  0  0  0  0  0  0  0  0  0  0  0
    0.1672    2.8039    0.0000 C   0  0  0  0  0  0  0  0  0  0  0  0
   -0.5473    3.2164    0.0000 C   0  0  0  0  0  0  0  0  0  0  0  0
   -1.2617    2.8039    0.0000 C   0  0  0  0  0  0  0  0  0  0  0  0
   -1.9762    4.0414    0.0000 C   0  0  0  0  0  0  0  0  0  0  0  0
    2.3106   -3.3836    0.0000 C   0  0  0  0  0  0  0  0  0  0  0  0
    2.3106   -4.2086    0.0000 C   0  0  0  0  0  0  0  0  0  0  0  0
    1.5961   -4.6211    0.0000 C   0  0  0  0  0  0  0  0  0  0  0  0
    0.8817   -3.3836    0.0000 C   0  0  0  0  0  0  0  0  0  0  0  0
   -0.5473   -0.9086    0.0000 N   0  0  0  0  0  0  0  0  0  0  0  0
   -1.2617   -0.4961    0.0000 C   0  0  0  0  0  0  0  0  0  0  0  0
   -1.2617    0.3289    0.0000 N   0  0  0  0  0  0  0  0  0  0  0  0
    0.8817   -1.7336    0.0000 N   0  0  0  0  0  0  0  0  0  0  0  0
    0.1672    1.9789    0.0000 N   0  0  0  0  0  0  0  0  0  0  0  0
   -1.9762    3.2164    0.0000 C   0  0  0  0  0  0  0  0  0  0  0  0
   -1.2617    4.4539    0.0000 C   0  0  0  0  0  0  0  0  0  0  0  0
   -0.5473    4.0414    0.0000 C   0  0  0  0  0  0  0  0  0  0  0  0
    0.8817   -4.2086    0.0000 C   0  0  0  0  0  0  0  0  0  0  0  0
   -1.2617    1.9789    0.0000 O   0  0  0  0  0  0  0  0  0  0  0  0
    1.5961   -0.4961    0.0000 O   0  0  0  0  0  0  0  0  0  0  0  0
    1.5961   -5.4461    0.0000 F   0  0  0  0  0  0  0  0  0  0  0  0
   -2.6907    4.4539    0.0000 F   0  0  0  0  0  0  0  0  0  0  0  0
  1  2  1  0  0  0  0
  1  9  1  0  0  0  0
  1 20  2  0  0  0  0
  2  3  2  0  0  0  0
  3  6  1  0  0  0  0
  3 18  1  0  0  0  0
  4 26  1  0  0  0  0
  5 23  1  0  0  0  0
  6 21  1  0  0  0  0
  6 28  2  0  0  0  0
  7  8  1  0  0  0  0
  7 21  1  0  0  0  0
  8 14  1  0  0  0  0
  8 17  2  0  0  0  0
  9 22  1  0  0  0  0
  9 27  2  0  0  0  0
 10 11  1  0  0  0  0
 10 22  1  0  0  0  0
 11 12  2  0  0  0  0
 11 25  1  0  0  0  0
 12 23  1  0  0  0  0
 13 23  2  0  0  0  0
 13 24  1  0  0  0  0
 13 30  1  0  0  0  0
 14 15  2  0  0  0  0
 15 16  1  0  0  0  0
 16 26  2  0  0  0  0
 16 29  1  0  0  0  0
 17 26  1  0  0  0  0
 18 19  2  0  0  0  0
 19 20  1  0  0  0  0
 24 25  2  0  0  0  0
M  END
> <DRUGBANK_ID>
DB04760

> <DRUG_GROUPS>
experimental

> <GENERIC_NAME>
PYRIMIDINE-4,6-DICARBOXYLIC ACID BIS-(4-FLUORO-3-METHYL-BENZYLAMIDE)

> <CHEMICAL_FORMULA>
C22H20F2N4O2

> <MOLECULAR_WEIGHT>
410.4166

> <EXACT_MASS>
410.155432314

> <IUPAC_NAME>
4-N,6-N-bis[(4-fluoro-3-methylphenyl)methyl]pyrimidine-4,6-dicarboxamide

> <IUPAC_TRADITIONAL_NAME>
4-N,6-N-bis[(4-fluoro-3-methylphenyl)methyl]pyrimidine-4,6-dicarboxamide

> <INCHI_IDENTIFIER>
InChI=1S/C22H20F2N4O2/c1-13-7-15(3-5-17(13)23)10-25-21(29)19-9-20(28-12-27-19)22(30)26-11-16-4-6-18(24)14(2)8-16/h3-9,12H,10-11H2,1-2H3,(H,25,29)(H,26,30)

> <INCHI_KEY>
InChIKey=PYFRREJCFXFNRR-UHFFFAOYSA-N

> <SMILES>
CC1=C(F)C=CC(CNC(=O)C2=CC(=NC=N2)C(=O)NCC2=CC(C)=C(F)C=C2)=C1

> <JCHEM_ACCEPTOR_COUNT>
4

> <JCHEM_DONOR_COUNT>
2

> <JCHEM_ACIDIC_PKA>
13.14

> <JCHEM_BASIC_PKA>
-2.8

> <JCHEM_PHYSIOLOGICAL_CHARGE>
0

> <ALOGPS_LOGP>
2.67

> <JCHEM_LOGP>
3.73

> <ALOGPS_LOGS>
-5.1

> <JCHEM_POLARIZABILITY>
42.01

> <JCHEM_POLAR_SURFACE_AREA>
83.98

> <JCHEM_REFRACTIVITY>
109.67

> <JCHEM_ROTATABLE_BOND_COUNT>
6

> <ALOGPS_SOLUBILITY>
3.01e-03 g/l __ 

$$$$
