
  Mrv0541 02231217332D          

  4  3  0  0  0  0            999 V2000
    1.2375    0.7145    0.0000 N   0  0  0  0  0  0  0  0  0  0  0  0
    0.8250    0.0000    0.0000 C   0  0  0  0  0  0  0  0  0  0  0  0
    1.2375   -0.7145    0.0000 O   0  0  0  0  0  0  0  0  0  0  0  0
    0.0000    0.0000    0.0000 O   0  0  0  0  0  0  0  0  0  0  0  0
  1  2  1  0  0  0  0
  2  3  1  0  0  0  0
  2  4  2  0  0  0  0
M  END
> <DRUGBANK_ID>
DB04261

> <DRUG_GROUPS>
experimental

> <GENERIC_NAME>
Carbamic Acid

> <CHEMICAL_FORMULA>
CH3NO2

> <MOLECULAR_WEIGHT>
61.04

> <EXACT_MASS>
61.016378345

> <IUPAC_NAME>
carbamic acid

> <IUPAC_TRADITIONAL_NAME>
carbamic acid

> <INCHI_IDENTIFIER>
InChI=1S/CH3NO2/c2-1(3)4/h2H2,(H,3,4)

> <INCHI_KEY>
InChIKey=KXDHJXZQYSOELW-UHFFFAOYSA-N

> <SMILES>
NC(O)=O

> <JCHEM_ACCEPTOR_COUNT>
2

> <JCHEM_DONOR_COUNT>
2

> <JCHEM_ACIDIC_PKA>
3.92

> <JCHEM_PHYSIOLOGICAL_CHARGE>
-1

> <ALOGPS_LOGP>
-1.1

> <JCHEM_LOGP>
-0.56

> <ALOGPS_LOGS>
0.79

> <JCHEM_POLARIZABILITY>
4.68

> <JCHEM_POLAR_SURFACE_AREA>
63.32

> <JCHEM_REFRACTIVITY>
11.32

> <JCHEM_ROTATABLE_BOND_COUNT>
0

> <ALOGPS_SOLUBILITY>
3.79e+02 g/l __ 

$$$$
