
  Mrv0541 02231217412D          

 13 14  0  0  0  0            999 V2000
    0.0000    0.0000    0.0000 Cl   0  0  0  0  0  0  0  0  0  0  0  0
    0.7145   -0.4125    0.0000 C    0  0  0  0  0  0  0  0  0  0  0  0
    1.4289    0.0000    0.0000 C    0  0  0  0  0  0  0  0  0  0  0  0
    1.4289    0.8250    0.0000 Cl   0  0  0  0  0  0  0  0  0  0  0  0
    2.1434   -0.4125    0.0000 C    0  0  0  0  0  0  0  0  0  0  0  0
    2.8579    0.0000    0.0000 C    0  0  0  0  0  0  0  0  0  0  0  0
    3.5724   -0.4125    0.0000 C    0  0  0  0  0  0  0  0  0  0  0  0
    3.5724   -1.2375    0.0000 C    0  0  0  0  0  0  0  0  0  0  0  0
    2.8579   -1.6500    0.0000 C    0  0  0  0  0  0  0  0  0  0  0  0
    2.1434   -1.2375    0.0000 C    0  0  0  0  0  0  0  0  0  0  0  0
    1.4289   -1.6500    0.0000 C    0  0  0  0  0  0  0  0  0  0  0  0
    1.4289   -2.4750    0.0000 O    0  0  0  0  0  0  0  0  0  0  0  0
    0.7145   -1.2375    0.0000 O    0  0  0  0  0  0  0  0  0  0  0  0
  1  2  1  0  0  0  0
  2  3  2  0  0  0  0
  3  4  1  0  0  0  0
  3  5  1  0  0  0  0
  5  6  2  0  0  0  0
  6  7  1  0  0  0  0
  7  8  2  0  0  0  0
  8  9  1  0  0  0  0
  9 10  2  0  0  0  0
  5 10  1  0  0  0  0
 10 11  1  0  0  0  0
 11 12  2  0  0  0  0
 11 13  1  0  0  0  0
  2 13  1  0  0  0  0
M  END
> <DRUGBANK_ID>
DB04459

> <DRUG_GROUPS>
experimental

> <GENERIC_NAME>
3,4-Dichloroisocoumarin

> <CHEMICAL_FORMULA>
C9H4Cl2O2

> <MOLECULAR_WEIGHT>
215.033

> <EXACT_MASS>
213.958834786

> <IUPAC_NAME>
3,4-dichloro-1H-isochromen-1-one

> <IUPAC_TRADITIONAL_NAME>
3,4-dichloroisocoumarin

> <INCHI_IDENTIFIER>
InChI=1S/C9H4Cl2O2/c10-7-5-3-1-2-4-6(5)9(12)13-8(7)11/h1-4H

> <INCHI_KEY>
InChIKey=SUGXUUGGLDCZKB-UHFFFAOYSA-N

> <SMILES>
ClC1=C(Cl)C2=CC=CC=C2C(=O)O1

> <JCHEM_ACCEPTOR_COUNT>
1

> <JCHEM_DONOR_COUNT>
0

> <JCHEM_BASIC_PKA>
-7.1

> <JCHEM_PHYSIOLOGICAL_CHARGE>
0

> <ALOGPS_LOGP>
3.14

> <JCHEM_LOGP>
2.88

> <ALOGPS_LOGS>
-3.5

> <JCHEM_POLARIZABILITY>
18.65

> <JCHEM_POLAR_SURFACE_AREA>
26.3

> <JCHEM_REFRACTIVITY>
61.05

> <JCHEM_ROTATABLE_BOND_COUNT>
0

> <ALOGPS_SOLUBILITY>
6.97e-02 g/l __ 

$$$$
