
  Mrv0541 02231217402D          

111121  0  0  1  0            999 V2000
    0.0067   -3.8021    0.0000 C    0  0  0  0  0  0  0  0  0  0  0  0
    0.3594   -3.0564    0.0000 N    0  3  0  0  0  0  0  0  0  0  0  0
   -0.1101   -2.3781    0.0000 C    0  0  1  0  0  0  0  0  0  0  0  0
   -0.9322   -2.4455    0.0000 C    0  0  0  0  0  0  0  0  0  0  0  0
   -1.2850   -3.1913    0.0000 C    0  0  0  0  0  0  0  0  0  0  0  0
   -2.1071   -3.2587    0.0000 C    0  0  0  0  0  0  0  0  0  0  0  0
   -0.8155   -3.8695    0.0000 C    0  0  0  0  0  0  0  0  0  0  0  0
    0.2426   -1.6323    0.0000 C    0  0  0  0  0  0  0  0  0  0  0  0
   -0.2269   -0.9541    0.0000 O    0  0  0  0  0  0  0  0  0  0  0  0
    1.0648   -1.5649    0.0000 N    0  0  0  0  0  0  0  0  0  0  0  0
    1.4175   -0.8192    0.0000 C    0  0  2  0  0  0  0  0  0  0  0  0
    0.7641   -0.2828    0.0000 C    0  0  2  0  0  0  0  0  0  0  0  0
    0.0509   -0.6973    0.0000 O    0  0  0  0  0  0  0  0  0  0  0  0
    0.6200    0.5586    0.0000 C    0  0  0  0  0  0  0  0  0  0  0  0
    0.0491    1.1823    0.0000 C    0  0  0  0  0  0  0  0  0  0  0  0
    0.2759    1.9850    0.0000 C    0  0  0  0  0  0  0  0  0  0  0  0
    1.0927    2.1843    0.0000 C    0  0  0  0  0  0  0  0  0  0  0  0
    1.5775    2.8782    0.0000 O    0  0  0  0  0  0  0  0  0  0  0  0
    2.3762    3.1681    0.0000 C    0  0  0  0  0  0  0  0  0  0  0  0
    2.9352    2.5401    0.0000 C    0  0  0  0  0  0  0  0  0  0  0  0
    3.7625    2.6573    0.0000 C    0  0  0  0  0  0  0  0  0  0  0  0
    4.0165    3.4565    0.0000 C    0  0  0  0  0  0  0  0  0  0  0  0
    3.4934    4.1136    0.0000 C    0  0  0  0  0  0  0  0  0  0  0  0
    3.9584    4.8246    0.0000 O    0  0  0  0  0  0  0  0  0  0  0  0
    4.7258    5.1879    0.0000 C    0  0  0  0  0  0  0  0  0  0  0  0
    5.1662    5.9044    0.0000 C    0  0  0  0  0  0  0  0  0  0  0  0
    6.0021    5.8880    0.0000 C    0  0  0  0  0  0  0  0  0  0  0  0
    6.4271    5.1574    0.0000 C    0  0  0  0  0  0  0  0  0  0  0  0
    5.9720    4.4570    0.0000 C    0  0  0  0  0  0  0  0  0  0  0  0
    5.1482    4.4656    0.0000 C    0  0  0  0  0  0  0  0  0  0  0  0
    4.7340    3.7522    0.0000 Cl   0  0  0  0  0  0  0  0  0  0  0  0
    7.1992    4.7848    0.0000 C    0  0  1  0  0  0  0  0  0  0  0  0
    7.7245    5.4208    0.0000 O    0  0  0  0  0  0  0  0  0  0  0  0
    7.4363    6.1938    0.0000 C    0  0  1  0  0  0  0  0  0  0  0  0
    6.6228    6.3306    0.0000 C    0  0  0  0  0  0  0  0  0  0  0  0
    6.3346    7.1037    0.0000 C    0  0  1  0  0  0  0  0  0  0  0  0
    5.7995    7.7314    0.0000 C    0  0  0  0  0  0  0  0  0  0  0  0
    5.6235    6.6856    0.0000 N    0  3  0  0  0  0  0  0  0  0  0  0
    6.8599    7.7397    0.0000 C    0  0  2  0  0  0  0  0  0  0  0  0
    6.5717    8.5126    0.0000 O    0  0  0  0  0  0  0  0  0  0  0  0
    7.6734    7.6028    0.0000 C    0  0  1  0  0  0  0  0  0  0  0  0
    8.1986    8.2388    0.0000 C    0  0  0  0  0  0  0  0  0  0  0  0
    7.9616    6.8299    0.0000 O    0  0  0  0  0  0  0  0  0  0  0  0
    7.7106    4.0977    0.0000 C    0  0  1  0  0  0  0  0  0  0  0  0
    7.2595    3.3721    0.0000 N    0  0  0  0  0  0  0  0  0  0  0  0
    6.8762    2.6178    0.0000 C    0  0  0  0  0  0  0  0  0  0  0  0
    6.0972    2.8893    0.0000 O    0  0  0  0  0  0  0  0  0  0  0  0
    6.7066    1.7835    0.0000 C    0  0  2  0  0  0  0  0  0  0  0  0
    5.8615    1.7081    0.0000 N    0  0  0  0  0  0  0  0  0  0  0  0
    5.0688    1.9795    0.0000 C    0  0  0  0  0  0  0  0  0  0  0  0
    5.1817    2.7967    0.0000 O    0  0  0  0  0  0  0  0  0  0  0  0
    4.2233    1.9327    0.0000 C    0  0  1  0  0  0  0  0  0  0  0  0
    4.0816    1.0953    0.0000 N    0  0  0  0  0  0  0  0  0  0  0  0
    4.1717    0.2619    0.0000 C    0  0  0  0  0  0  0  0  0  0  0  0
    4.9840    0.1182    0.0000 O    0  0  0  0  0  0  0  0  0  0  0  0
    3.8033   -0.4856    0.0000 C    0  0  1  0  0  0  0  0  0  0  0  0
    4.3993   -1.0559    0.0000 C    0  0  0  0  0  0  0  0  0  0  0  0
    4.2036   -1.8573    0.0000 C    0  0  0  0  0  0  0  0  0  0  0  0
    3.4116   -2.0884    0.0000 N    0  0  0  0  0  0  0  0  0  0  0  0
    4.7996   -2.4275    0.0000 O    0  0  0  0  0  0  0  0  0  0  0  0
    3.0727   -0.8868    0.0000 N    0  0  0  0  0  0  0  0  0  0  0  0
    2.2412   -0.9829    0.0000 C    0  0  0  0  0  0  0  0  0  0  0  0
    2.2078   -1.8071    0.0000 O    0  0  0  0  0  0  0  0  0  0  0  0
    7.2839    1.1397    0.0000 C    0  0  0  0  0  0  0  0  0  0  0  0
    7.1431    0.3088    0.0000 C    0  0  0  0  0  0  0  0  0  0  0  0
    7.7660   -0.2424    0.0000 C    0  0  0  0  0  0  0  0  0  0  0  0
    8.5532    0.0313    0.0000 C    0  0  0  0  0  0  0  0  0  0  0  0
    9.1687   -0.5178    0.0000 O    0  0  0  0  0  0  0  0  0  0  0  0
    8.7374    0.8525    0.0000 C    0  0  0  0  0  0  0  0  0  0  0  0
    8.0884    1.3849    0.0000 C    0  0  0  0  0  0  0  0  0  0  0  0
    9.4819    1.2688    0.0000 C    0  0  0  0  0  0  0  0  0  0  0  0
    9.9839    0.6141    0.0000 C    0  0  0  0  0  0  0  0  0  0  0  0
    9.6678   -0.1479    0.0000 O    0  0  0  0  0  0  0  0  0  0  0  0
   10.8018    0.7215    0.0000 C    0  0  0  0  0  0  0  0  0  0  0  0
   11.1177    1.4834    0.0000 C    0  0  0  0  0  0  0  0  0  0  0  0
   11.9357    1.5908    0.0000 O    0  0  0  0  0  0  0  0  0  0  0  0
   10.6158    2.1382    0.0000 C    0  0  0  0  0  0  0  0  0  0  0  0
    9.7979    2.0308    0.0000 C    0  0  0  0  0  0  0  0  0  0  0  0
    9.5952    2.8611    0.0000 C    0  0  1  0  0  0  0  0  0  0  0  0
    9.2503    3.6282    0.0000 N    0  0  0  0  0  0  0  0  0  0  0  0
    8.5635    4.1188    0.0000 C    0  0  0  0  0  0  0  0  0  0  0  0
    8.8055    4.9074    0.0000 O    0  0  0  0  0  0  0  0  0  0  0  0
   10.3754    3.1292    0.0000 C    0  0  0  0  0  0  0  0  0  0  0  0
   10.9977    2.5876    0.0000 O    0  0  0  0  0  0  0  0  0  0  0  0
   10.5333    3.9388    0.0000 O    0  0  0  0  0  0  0  0  0  0  0  0
    2.6693    3.9554    0.0000 C    0  0  0  0  0  0  0  0  0  0  0  0
    2.1366    4.5853    0.0000 O    0  0  0  0  0  0  0  0  0  0  0  0
    1.3248    4.4388    0.0000 C    0  0  1  0  0  0  0  0  0  0  0  0
    1.0456    3.6626    0.0000 O    0  0  0  0  0  0  0  0  0  0  0  0
    0.2338    3.5162    0.0000 C    0  0  1  0  0  0  0  0  0  0  0  0
   -0.0453    2.7400    0.0000 C    0  0  0  0  0  0  0  0  0  0  0  0
   -0.8571    2.5935    0.0000 O    0  0  0  0  0  0  0  0  0  0  0  0
   -0.2989    4.1461    0.0000 C    0  0  2  0  0  0  0  0  0  0  0  0
   -1.1107    3.9997    0.0000 O    0  0  0  0  0  0  0  0  0  0  0  0
   -0.0198    4.9224    0.0000 C    0  0  1  0  0  0  0  0  0  0  0  0
   -0.5524    5.5522    0.0000 O    0  0  0  0  0  0  0  0  0  0  0  0
    0.7921    5.0688    0.0000 C    0  0  2  0  0  0  0  0  0  0  0  0
    1.0712    5.8450    0.0000 O    0  0  0  0  0  0  0  0  0  0  0  0
    1.8830    5.9914    0.0000 C    0  0  2  0  0  0  0  0  0  0  0  0
    2.4157    5.3615    0.0000 C    0  0  0  0  0  0  0  0  0  0  0  0
    3.2276    5.5079    0.0000 C    0  0  2  0  0  0  0  0  0  0  0  0
    3.2308    4.6830    0.0000 C    0  0  0  0  0  0  0  0  0  0  0  0
    4.0405    5.3678    0.0000 N    0  3  0  0  0  0  0  0  0  0  0  0
    3.5066    6.2841    0.0000 C    0  0  1  0  0  0  0  0  0  0  0  0
    4.3184    6.4306    0.0000 O    0  0  0  0  0  0  0  0  0  0  0  0
    2.9740    6.9141    0.0000 C    0  0  2  0  0  0  0  0  0  0  0  0
    3.2531    7.6903    0.0000 C    0  0  0  0  0  0  0  0  0  0  0  0
    2.1622    6.7677    0.0000 O    0  0  0  0  0  0  0  0  0  0  0  0
    1.6598    1.5684    0.0000 C    0  0  0  0  0  0  0  0  0  0  0  0
    2.4631    1.7562    0.0000 Cl   0  0  0  0  0  0  0  0  0  0  0  0
    1.4284    0.7783    0.0000 C    0  0  0  0  0  0  0  0  0  0  0  0
  1  2  1  0  0  0  0
  3  2  1  1  0  0  0
  3  4  1  0  0  0  0
  4  5  1  0  0  0  0
  5  6  1  0  0  0  0
  5  7  1  0  0  0  0
  3  8  1  0  0  0  0
  8  9  2  0  0  0  0
  8 10  1  0  0  0  0
 11 10  1  6  0  0  0
 11 12  1  0  0  0  0
 12 13  1  6  0  0  0
 12 14  1  0  0  0  0
 14 15  2  0  0  0  0
 15 16  1  0  0  0  0
 16 17  2  0  0  0  0
 17 18  1  0  0  0  0
 18 19  1  0  0  0  0
 19 20  2  0  0  0  0
 20 21  1  0  0  0  0
 21 22  2  0  0  0  0
 22 23  1  0  0  0  0
 23 24  1  0  0  0  0
 24 25  1  0  0  0  0
 25 26  2  0  0  0  0
 26 27  1  0  0  0  0
 27 28  2  0  0  0  0
 28 29  1  0  0  0  0
 29 30  2  0  0  0  0
 25 30  1  0  0  0  0
 30 31  1  0  0  0  0
 28 32  1  0  0  0  0
 32 33  1  1  0  0  0
 34 33  1  1  0  0  0
 34 35  1  0  0  0  0
 35 36  1  0  0  0  0
 36 37  1  6  0  0  0
 36 38  1  1  0  0  0
 36 39  1  0  0  0  0
 39 40  1  6  0  0  0
 39 41  1  0  0  0  0
 41 42  1  1  0  0  0
 41 43  1  0  0  0  0
 34 43  1  0  0  0  0
 32 44  1  0  0  0  0
 44 45  1  6  0  0  0
 45 46  1  0  0  0  0
 46 47  2  0  0  0  0
 46 48  1  0  0  0  0
 48 49  1  0  0  0  0
 49 50  1  0  0  0  0
 50 51  2  0  0  0  0
 50 52  1  0  0  0  0
 52 21  1  1  0  0  0
 52 53  1  0  0  0  0
 53 54  1  0  0  0  0
 54 55  2  0  0  0  0
 54 56  1  0  0  0  0
 56 57  1  1  0  0  0
 57 58  1  0  0  0  0
 58 59  1  0  0  0  0
 58 60  2  0  0  0  0
 56 61  1  0  0  0  0
 61 62  1  0  0  0  0
 11 62  1  0  0  0  0
 62 63  2  0  0  0  0
 48 64  1  1  0  0  0
 64 65  2  0  0  0  0
 65 66  1  0  0  0  0
 66 67  2  0  0  0  0
 67 68  1  0  0  0  0
 67 69  1  0  0  0  0
 69 70  2  0  0  0  0
 64 70  1  0  0  0  0
 69 71  1  0  0  0  0
 71 72  2  0  0  0  0
 72 73  1  0  0  0  0
 72 74  1  0  0  0  0
 74 75  2  0  0  0  0
 75 76  1  0  0  0  0
 75 77  1  0  0  0  0
 77 78  2  0  0  0  0
 71 78  1  0  0  0  0
 78 79  1  0  0  0  0
 79 80  1  0  0  0  0
 80 81  1  0  0  0  0
 44 81  1  0  0  0  0
 81 82  2  0  0  0  0
 79 83  1  1  0  0  0
 83 84  1  0  0  0  0
 83 85  2  0  0  0  0
 23 86  2  0  0  0  0
 19 86  1  0  0  0  0
 86 87  1  0  0  0  0
 88 87  1  1  0  0  0
 88 89  1  0  0  0  0
 89 90  1  0  0  0  0
 90 91  1  1  0  0  0
 91 92  1  0  0  0  0
 90 93  1  0  0  0  0
 93 94  1  6  0  0  0
 93 95  1  0  0  0  0
 95 96  1  1  0  0  0
 95 97  1  0  0  0  0
 88 97  1  0  0  0  0
 97 98  1  6  0  0  0
 99 98  1  1  0  0  0
 99100  1  0  0  0  0
100101  1  0  0  0  0
101102  1  6  0  0  0
101103  1  1  0  0  0
101104  1  0  0  0  0
104105  1  6  0  0  0
104106  1  0  0  0  0
106107  1  1  0  0  0
106108  1  0  0  0  0
 99108  1  0  0  0  0
 17109  1  0  0  0  0
109110  1  0  0  0  0
109111  2  0  0  0  0
 14111  1  0  0  0  0
M  END
> <DRUGBANK_ID>
DB04431

> <DRUG_GROUPS>
experimental

> <GENERIC_NAME>
4-Epi-Vancosaminyl Derivative of Vancomycin

> <CHEMICAL_FORMULA>
C73H91Cl2N10O26

> <MOLECULAR_WEIGHT>
1595.461

> <EXACT_MASS>
1593.548303548

> <IUPAC_NAME>
(2R,3S,4R,6R)-6-{[(1R,2R,18R,19R,22R,25S,28R,40R)-48-{[(2R,3S,4R,5R,6S)-3-{[(2R,4S,5R,6S)-4-azaniumyl-5-hydroxy-4,6-dimethyloxan-2-yl]oxy}-4,5-dihydroxy-6-(hydroxymethyl)oxan-2-yl]oxy}-22-(carbamoylmethyl)-40-carboxy-47,49-dichloro-18,32,35,37-tetrahydroxy-19-[(2S)-4-methyl-2-(methylazaniumyl)pentanamido]-20,23,26,42,44-pentaoxo-7,13-dioxa-21,24,27,41,43-pentaazaoctacyclo[26.14.2.2^{3,6}.2^{14,17}.1^{8,12}.1^{29,33}.0^{10,25}.0^{34,39}]pentaconta-3,5,8(48),9,11,14,16,29,31,33(45),34,36,38,46,49-pentadecaen-2-yl]oxy}-3-hydroxy-2,4-dimethyloxan-4-aminium

> <IUPAC_TRADITIONAL_NAME>
(2R,3S,4R,6R)-6-{[(1R,2R,18R,19R,22R,25S,28R,40R)-48-{[(2R,3S,4R,5R,6S)-3-{[(2R,4S,5R,6S)-4-aminio-5-hydroxy-4,6-dimethyloxan-2-yl]oxy}-4,5-dihydroxy-6-(hydroxymethyl)oxan-2-yl]oxy}-22-(carbamoylmethyl)-40-carboxy-47,49-dichloro-18,32,35,37-tetrahydroxy-19-[(2S)-4-methyl-2-(methylaminio)pentanamido]-20,23,26,42,44-pentaoxo-7,13-dioxa-21,24,27,41,43-pentaazaoctacyclo[26.14.2.2^{3,6}.2^{14,17}.1^{8,12}.1^{29,33}.0^{10,25}.0^{34,39}]pentaconta-3,5,8(48),9,11,14,16,29,31,33(45),34,36,38,46,49-pentadecaen-2-yl]oxy}-3-hydroxy-2,4-dimethyloxan-4-aminium

> <INCHI_IDENTIFIER>
InChI=1S/C73H88Cl2N10O26/c1-26(2)14-38(79-7)64(96)84-54-56(91)30-9-12-42(36(74)16-30)106-44-18-32-19-45(60(44)111-71-61(58(93)57(92)46(25-86)108-71)110-49-24-73(6,78)63(95)28(4)105-49)107-43-13-10-31(17-37(43)75)59(109-48-23-72(5,77)62(94)27(3)104-48)55-69(101)83-53(70(102)103)35-20-33(87)21-41(89)50(35)34-15-29(8-11-40(34)88)51(66(98)85-55)82-67(99)52(32)81-65(97)39(22-47(76)90)80-68(54)100/h8-13,15-21,26-28,38-39,46,48-49,51-59,61-63,71,79,86-89,91-95H,14,22-25,77-78H2,1-7H3,(H2,76,90)(H,80,100)(H,81,97)(H,82,99)(H,83,101)(H,84,96)(H,85,98)(H,102,103)/p+3/t27-,28+,38+,39-,46+,48+,49-,51-,52+,53-,54-,55-,56-,57+,58-,59-,61+,62-,63+,71-,72-,73+/m1/s1

> <INCHI_KEY>
InChIKey=XJHXLMVKYIVZTE-NKSLQJBJSA-Q

> <SMILES>
C[NH2+][C@@H](CC(C)C)C(=O)N[C@@H]1[C@H](O)C2=CC=C(OC3=CC4=CC(OC5=CC=C(C=C5Cl)[C@@H](O[C@H]5C[C@@](C)([NH3+])[C@H](O)[C@@H](C)O5)[C@H]5NC(=O)[C@H](NC(=O)[C@H]4NC(=O)[C@@H](CC(N)=O)NC1=O)C1=CC=C(O)C(=C1)C1=C(O)C=C(O)C=C1[C@@H](NC5=O)C(O)=O)=C3O[C@H]1O[C@@H](CO)[C@H](O)[C@@H](O)[C@@H]1O[C@@H]1C[C@](C)([NH3+])[C@@H](O)[C@H](C)O1)C(Cl)=C2

> <JCHEM_ACCEPTOR_COUNT>
24

> <JCHEM_DONOR_COUNT>
20

> <JCHEM_ACIDIC_PKA>
2.98

> <JCHEM_BASIC_PKA>
10.19

> <JCHEM_PHYSIOLOGICAL_CHARGE>
2

> <ALOGPS_LOGP>
1.16

> <JCHEM_LOGP>
-4.8

> <ALOGPS_LOGS>
-4.8

> <JCHEM_POLARIZABILITY>
155.82

> <JCHEM_POLAR_SURFACE_AREA>
582.79

> <JCHEM_REFRACTIVITY>
416.26

> <JCHEM_ROTATABLE_BOND_COUNT>
15

> <ALOGPS_SOLUBILITY>
2.82e-02 g/l __ 

$$$$
