CB1
  Mrv0541 02231217332D          

 18 19  0  0  0  0            999 V2000
    1.0371    0.6682    0.0000 C   0  0  0  0  0  0  0  0  0  0  0  0
    1.0371   -0.1568    0.0000 C   0  0  0  0  0  0  0  0  0  0  0  0
    0.3227   -0.5693    0.0000 C   0  0  0  0  0  0  0  0  0  0  0  0
   -0.3918   -0.1568    0.0000 C   0  0  0  0  0  0  0  0  0  0  0  0
   -0.3918    0.6682    0.0000 C   0  0  0  0  0  0  0  0  0  0  0  0
    0.3227    1.0807    0.0000 C   0  0  0  0  0  0  0  0  0  0  0  0
    1.7516   -0.5693    0.0000 N   0  3  0  0  0  0  0  0  0  0  0  0
    2.4661   -0.1568    0.0000 O   0  0  0  0  0  0  0  0  0  0  0  0
    1.7516   -1.3943    0.0000 O   0  5  0  0  0  0  0  0  0  0  0  0
    0.3227   -1.3943    0.0000 C   0  0  0  0  0  0  0  0  0  0  0  0
   -0.3918   -1.8068    0.0000 N   0  0  0  0  0  0  0  0  0  0  0  0
    1.0371   -1.8068    0.0000 O   0  0  0  0  0  0  0  0  0  0  0  0
   -1.1063    1.0807    0.0000 N   0  0  0  0  0  0  0  0  0  0  0  0
   -1.9313    1.0807    0.0000 C   0  0  0  0  0  0  0  0  0  0  0  0
   -1.5188    1.7952    0.0000 C   0  0  0  0  0  0  0  0  0  0  0  0
    0.3227    1.9057    0.0000 N   0  3  0  0  0  0  0  0  0  0  0  0
   -0.3918    2.3182    0.0000 O   0  0  0  0  0  0  0  0  0  0  0  0
    1.0371    2.3182    0.0000 O   0  5  0  0  0  0  0  0  0  0  0  0
  1  2  2  0  0  0  0
  1  6  1  0  0  0  0
  2  3  1  0  0  0  0
  2  7  1  0  0  0  0
  3  4  2  0  0  0  0
  3 10  1  0  0  0  0
  4  5  1  0  0  0  0
  5  6  2  0  0  0  0
  5 13  1  0  0  0  0
  6 16  1  0  0  0  0
  7  8  2  0  0  0  0
  7  9  1  0  0  0  0
 10 11  1  0  0  0  0
 10 12  2  0  0  0  0
 13 14  1  0  0  0  0
 13 15  1  0  0  0  0
 14 15  1  0  0  0  0
 16 17  2  0  0  0  0
 16 18  1  0  0  0  0
M  END
> <DRUGBANK_ID>
DB04253

> <DRUG_GROUPS>
experimental

> <GENERIC_NAME>
CB1954

> <CHEMICAL_FORMULA>
C9H8N4O5

> <MOLECULAR_WEIGHT>
252.1836

> <EXACT_MASS>
252.049469386

> <IUPAC_NAME>
5-(aziridin-1-yl)-2,4-dinitrobenzamide

> <IUPAC_TRADITIONAL_NAME>
tretazicar

> <INCHI_IDENTIFIER>
InChI=1S/C9H8N4O5/c10-9(14)5-3-7(11-1-2-11)8(13(17)18)4-6(5)12(15)16/h3-4H,1-2H2,(H2,10,14)

> <INCHI_KEY>
InChIKey=WOCXQMCIOTUMJV-UHFFFAOYSA-N

> <SMILES>
NC(=O)C1=CC(N2CC2)=C(C=C1[N+]([O-])=O)[N+]([O-])=O

> <JCHEM_ACCEPTOR_COUNT>
6

> <JCHEM_DONOR_COUNT>
1

> <JCHEM_ACIDIC_PKA>
11.29

> <JCHEM_BASIC_PKA>
-2.5

> <JCHEM_PHYSIOLOGICAL_CHARGE>
0

> <ALOGPS_LOGP>
0.04

> <JCHEM_LOGP>
0.64

> <ALOGPS_LOGS>
-2.5

> <JCHEM_POLARIZABILITY>
21.56

> <JCHEM_POLAR_SURFACE_AREA>
137.74

> <JCHEM_REFRACTIVITY>
62.25

> <JCHEM_ROTATABLE_BOND_COUNT>
4

> <ALOGPS_SOLUBILITY>
9.04e-01 g/l __ 

$$$$
