
  Mrv0541 02231217392D          

 10 10  0  0  0  0            999 V2000
   -0.7145    3.7125    0.0000 N   0  3  0  0  0  0  0  0  0  0  0  0
    0.0000    3.3000    0.0000 C   0  0  0  0  0  0  0  0  0  0  0  0
    0.0000    2.4750    0.0000 C   0  0  0  0  0  0  0  0  0  0  0  0
    0.7145    2.0625    0.0000 C   0  0  0  0  0  0  0  0  0  0  0  0
    0.7145    1.2375    0.0000 C   0  0  0  0  0  0  0  0  0  0  0  0
    1.4289    0.8250    0.0000 C   0  0  0  0  0  0  0  0  0  0  0  0
    1.4289    0.0000    0.0000 C   0  0  0  0  0  0  0  0  0  0  0  0
    0.7145   -0.4125    0.0000 C   0  0  0  0  0  0  0  0  0  0  0  0
    0.0000    0.0000    0.0000 C   0  0  0  0  0  0  0  0  0  0  0  0
    0.0000    0.8250    0.0000 C   0  0  0  0  0  0  0  0  0  0  0  0
  1  2  1  0  0  0  0
  2  3  1  0  0  0  0
  3  4  1  0  0  0  0
  4  5  1  0  0  0  0
  5  6  2  0  0  0  0
  6  7  1  0  0  0  0
  7  8  2  0  0  0  0
  8  9  1  0  0  0  0
  9 10  2  0  0  0  0
  5 10  1  0  0  0  0
M  END
> <DRUGBANK_ID>
DB04410

> <DRUG_GROUPS>
experimental

> <GENERIC_NAME>
3-Phenylpropylamine

> <CHEMICAL_FORMULA>
C9H14N

> <MOLECULAR_WEIGHT>
136.2142

> <EXACT_MASS>
136.112624453

> <IUPAC_NAME>
3-phenylpropan-1-aminium

> <IUPAC_TRADITIONAL_NAME>
3-phenylpropylamine

> <INCHI_IDENTIFIER>
InChI=1S/C9H13N/c10-8-4-7-9-5-2-1-3-6-9/h1-3,5-6H,4,7-8,10H2/p+1

> <INCHI_KEY>
InChIKey=LYUQWQRTDLVQGA-UHFFFAOYSA-O

> <SMILES>
[NH3+]CCCC1=CC=CC=C1

> <JCHEM_ACCEPTOR_COUNT>
0

> <JCHEM_DONOR_COUNT>
1

> <JCHEM_BASIC_PKA>
10.05

> <JCHEM_PHYSIOLOGICAL_CHARGE>
1

> <ALOGPS_LOGP>
-1.1

> <JCHEM_LOGP>
1.83

> <ALOGPS_LOGS>
-4

> <JCHEM_POLARIZABILITY>
16.74

> <JCHEM_POLAR_SURFACE_AREA>
27.64

> <JCHEM_REFRACTIVITY>
55.18

> <JCHEM_ROTATABLE_BOND_COUNT>
3

> <ALOGPS_SOLUBILITY>
1.58e-02 g/l __ 

$$$$
