
  Mrv0541 02231217552D          

 43 47  0  0  1  0            999 V2000
   -7.1673    2.1590    0.0000 C   0  0  0  0  0  0  0  0  0  0  0  0
   -7.1092    1.3361    0.0000 N   0  0  0  0  0  0  0  0  0  0  0  0
   -6.3675    0.9749    0.0000 C   0  0  0  0  0  0  0  0  0  0  0  0
   -6.3094    0.1519    0.0000 O   0  0  0  0  0  0  0  0  0  0  0  0
   -5.6838    1.4367    0.0000 C   0  0  1  0  0  0  0  0  0  0  0  0
   -5.7419    2.2596    0.0000 C   0  0  0  0  0  0  0  0  0  0  0  0
   -4.9421    1.0755    0.0000 C   0  0  2  0  0  0  0  0  0  0  0  0
   -4.2139    1.4633    0.0000 N   0  0  0  0  0  0  0  0  0  0  0  0
   -4.0996    2.2803    0.0000 C   0  0  2  0  0  0  0  0  0  0  0  0
   -4.7501    2.7878    0.0000 C   0  0  0  0  0  0  0  0  0  0  0  0
   -4.6358    3.6049    0.0000 C   0  0  0  0  0  0  0  0  0  0  0  0
   -3.8711    3.9144    0.0000 C   0  0  2  0  0  0  0  0  0  0  0  0
   -3.7568    4.7315    0.0000 O   0  0  0  0  0  0  0  0  0  0  0  0
   -3.2206    3.4069    0.0000 C   0  0  2  0  0  0  0  0  0  0  0  0
   -2.4559    3.7165    0.0000 C   0  0  0  0  0  0  0  0  0  0  0  0
   -3.3349    2.5899    0.0000 O   0  0  0  0  0  0  0  0  0  0  0  0
   -3.6201    0.8906    0.0000 C   0  0  0  0  0  0  0  0  0  0  0  0
   -2.8077    1.0344    0.0000 O   0  0  0  0  0  0  0  0  0  0  0  0
   -3.9813    0.1488    0.0000 C   0  0  0  0  0  0  0  0  0  0  0  0
   -3.5935   -0.5793    0.0000 C   0  0  0  0  0  0  0  0  0  0  0  0
   -4.0302   -1.2793    0.0000 O   0  0  0  0  0  0  0  0  0  0  0  0
   -2.7690   -0.6076    0.0000 C   0  0  0  0  0  0  0  0  0  0  0  0
   -2.3812   -1.3358    0.0000 C   0  0  0  0  0  0  0  0  0  0  0  0
   -1.5566   -1.3640    0.0000 C   0  0  0  0  0  0  0  0  0  0  0  0
   -1.1199   -0.6641    0.0000 C   0  0  0  0  0  0  0  0  0  0  0  0
   -1.1689   -2.0922    0.0000 C   0  0  0  0  0  0  0  0  0  0  0  0
   -0.3357   -2.1208    0.0000 C   0  0  1  0  0  0  0  0  0  0  0  0
    0.0889   -2.8416    0.0000 C   0  0  0  0  0  0  0  0  0  0  0  0
    0.1175   -1.3600    0.0000 C   0  0  2  0  0  0  0  0  0  0  0  0
    0.2444   -0.5581    0.0000 O   0  0  0  0  0  0  0  0  0  0  0  0
    1.1634   -0.5574    0.0000 C   0  0  2  0  0  0  0  0  0  0  0  0
    1.8297    0.1624    0.0000 C   0  0  0  0  0  0  0  0  0  0  0  0
    1.7132   -0.1214    0.0000 O   0  0  0  0  0  0  0  0  0  0  0  0
    1.5820   -0.9250    0.0000 C   0  0  1  0  0  0  0  0  0  0  0  0
    1.6290   -1.9119    0.0000 C   0  0  0  0  0  0  0  0  0  0  0  0
    0.8127   -2.0914    0.0000 C   0  0  0  0  0  0  0  0  0  0  0  0
    1.2248   -1.5105    0.0000 C   0  0  2  0  0  0  0  0  0  0  0  0
    2.0414   -1.6277    0.0000 C   0  0  0  0  0  0  0  0  0  0  0  0
    1.5316   -2.2763    0.0000 O   0  0  0  0  0  0  0  0  0  0  0  0
    0.6220   -0.9357    0.0000 C   0  0  2  0  0  0  0  0  0  0  0  0
    0.3779    0.0162    0.0000 C   0  0  0  0  0  0  0  0  0  0  0  0
   -4.7983    0.2631    0.0000 C   0  0  0  0  0  0  0  0  0  0  0  0
   -5.3710   -0.3307    0.0000 O   0  0  0  0  0  0  0  0  0  0  0  0
  1  2  1  0  0  0  0
  2  3  1  0  0  0  0
  3  4  2  0  0  0  0
  3  5  1  0  0  0  0
  5  6  1  1  0  0  0
  7  5  1  6  0  0  0
  7  8  1  0  0  0  0
  9  8  1  6  0  0  0
  9 10  1  0  0  0  0
 10 11  1  0  0  0  0
 11 12  1  0  0  0  0
 12 13  1  6  0  0  0
 12 14  1  0  0  0  0
 14 15  1  6  0  0  0
 14 16  1  0  0  0  0
  9 16  1  0  0  0  0
  8 17  1  0  0  0  0
 17 18  1  0  0  0  0
 17 19  2  0  0  0  0
 19 20  1  0  0  0  0
 20 21  2  0  0  0  0
 20 22  1  0  0  0  0
 22 23  2  0  0  0  0
 23 24  1  0  0  0  0
 24 25  1  0  0  0  0
 24 26  2  0  0  0  0
 26 27  1  0  0  0  0
 27 28  1  6  0  0  0
 29 27  1  6  0  0  0
 29 30  1  0  0  0  0
 30 31  1  0  0  0  0
 31 32  1  1  0  0  0
 31 33  1  0  0  0  0
 34 33  1  1  0  0  0
 34 35  1  0  0  0  0
 35 36  2  0  0  0  0
 36 37  1  0  0  0  0
 31 37  1  0  0  0  0
 37 38  1  0  0  0  0
 38 39  1  0  0  0  0
 37 39  1  6  0  0  0
 34 40  1  0  0  0  0
 29 40  1  0  0  0  0
 40 41  1  1  0  0  0
 19 42  1  0  0  0  0
  7 42  1  0  0  0  0
 42 43  2  0  0  0  0
M  END
> <DRUGBANK_ID>
DB04785

> <DRUG_GROUPS>
experimental

> <GENERIC_NAME>
Streptolydigin

> <SYNONYMS>


> <CHEMICAL_FORMULA>
C32H44N2O9

> <MOLECULAR_WEIGHT>
600.6998

> <EXACT_MASS>
600.304681016

> <IUPAC_NAME>
(2S)-2-[(2S)-4-[(2E,4E,6R)-6-[(1S,2S,5S,6S,7S)-1,6-dimethyl-8,9-dioxaspiro[bicyclo[3.3.1]nonane-2,2'-oxiran]-3-en-7-yl]-4-methylhepta-2,4-dienoyl]-5-hydroxy-1-[(2S,5S,6S)-5-hydroxy-6-methyloxan-2-yl]-3-oxo-2,3-dihydro-1H-pyrrol-2-yl]-N-methylpropanamide

> <IUPAC_TRADITIONAL_NAME>
streptolydigin

> <INCHI_IDENTIFIER>
InChI=1S/C32H44N2O9/c1-16(14-17(2)28-18(3)23-12-13-32(15-40-32)31(6,42-23)43-28)8-9-22(36)25-27(37)26(19(4)29(38)33-7)34(30(25)39)24-11-10-21(35)20(5)41-24/h8-9,12-14,17-21,23-24,26,28,35,39H,10-11,15H2,1-7H3,(H,33,38)/b9-8+,16-14+/t17-,18+,19+,20+,21+,23+,24+,26+,28+,31+,32+/m1/s1

> <INCHI_KEY>
InChIKey=UEFVDAXLJNYMAZ-ONVRBHABSA-N

> <SMILES>
CNC(=O)[C@@H](C)[C@@H]1N([C@@H]2CC[C@H](O)[C@H](C)O2)C(O)=C(C(=O)\C=C\C(\C)=C\[C@@H](C)[C@@H]2O[C@]3(C)O[C@@H](C=C[C@]33CO3)[C@@H]2C)C1=O

> <JCHEM_ACCEPTOR_COUNT>
10

> <JCHEM_DONOR_COUNT>
3

> <JCHEM_ACIDIC_PKA>
4.25

> <JCHEM_BASIC_PKA>
-0.26

> <JCHEM_PHYSIOLOGICAL_CHARGE>
-2

> <ALOGPS_LOGP>
1.98

> <JCHEM_LOGP>
3.54

> <ALOGPS_LOGS>
-4.1

> <JCHEM_POLARIZABILITY>
63.69

> <JCHEM_POLAR_SURFACE_AREA>
147.16

> <JCHEM_REFRACTIVITY>
169.64

> <JCHEM_ROTATABLE_BOND_COUNT>
8

> <ALOGPS_SOLUBILITY>
4.61e-02 g/l __ 

$$$$
