LIM
  Mrv0541 02231217222D          

 18 17  0  0  0  0            999 V2000
   -5.0142    0.1764    0.0000 C   0  0  0  0  0  0  0  0  0  0  0  0
   -4.2996   -0.2361    0.0000 C   0  0  0  0  0  0  0  0  0  0  0  0
   -3.5851    0.1764    0.0000 C   0  0  0  0  0  0  0  0  0  0  0  0
   -2.8706   -0.2361    0.0000 C   0  0  0  0  0  0  0  0  0  0  0  0
   -2.1561    0.1764    0.0000 C   0  0  0  0  0  0  0  0  0  0  0  0
   -1.4415   -0.2361    0.0000 C   0  0  0  0  0  0  0  0  0  0  0  0
   -0.7270    0.1764    0.0000 C   0  0  0  0  0  0  0  0  0  0  0  0
   -0.0125   -0.2361    0.0000 C   0  0  0  0  0  0  0  0  0  0  0  0
    0.7021    0.1764    0.0000 C   0  0  0  0  0  0  0  0  0  0  0  0
    1.4166   -0.2361    0.0000 C   0  0  0  0  0  0  0  0  0  0  0  0
    2.1311    0.1764    0.0000 C   0  0  0  0  0  0  0  0  0  0  0  0
    2.8456   -0.2361    0.0000 C   0  0  0  0  0  0  0  0  0  0  0  0
    3.5602    0.1764    0.0000 C   0  0  0  0  0  0  0  0  0  0  0  0
    4.2747   -0.2361    0.0000 C   0  0  0  0  0  0  0  0  0  0  0  0
    4.9892    0.1764    0.0000 C   0  0  0  0  0  0  0  0  0  0  0  0
   -5.7286   -0.2361    0.0000 O   0  0  0  0  0  0  0  0  0  0  0  0
   -3.5851    1.0015    0.0000 O   0  0  0  0  0  0  0  0  0  0  0  0
   -5.0142    1.0015    0.0000 O   0  0  0  0  0  0  0  0  0  0  0  0
  1  2  1  0  0  0  0
  1 16  2  0  0  0  0
  1 18  1  0  0  0  0
  2  3  1  0  0  0  0
  3  4  1  0  0  0  0
  3 17  2  0  0  0  0
  4  5  1  0  0  0  0
  5  6  1  0  0  0  0
  6  7  1  0  0  0  0
  7  8  1  0  0  0  0
  8  9  1  0  0  0  0
  9 10  1  0  0  0  0
 10 11  1  0  0  0  0
 11 12  1  0  0  0  0
 12 13  1  0  0  0  0
 13 14  1  0  0  0  0
 14 15  1  0  0  0  0
M  END
> <DRUGBANK_ID>
DB04039

> <DRUG_GROUPS>
experimental

> <GENERIC_NAME>
3-Oxo-Pentadecanoic Acid

> <CHEMICAL_FORMULA>
C15H28O3

> <MOLECULAR_WEIGHT>
256.381

> <EXACT_MASS>
256.203844762

> <IUPAC_NAME>
3-oxopentadecanoic acid

> <IUPAC_TRADITIONAL_NAME>
3-oxo-pentadecanoic acid

> <INCHI_IDENTIFIER>
InChI=1S/C15H28O3/c1-2-3-4-5-6-7-8-9-10-11-12-14(16)13-15(17)18/h2-13H2,1H3,(H,17,18)

> <INCHI_KEY>
InChIKey=CJTNJZWHYGHVCD-UHFFFAOYSA-N

> <SMILES>
CCCCCCCCCCCCC(=O)CC(O)=O

> <JCHEM_ACCEPTOR_COUNT>
3

> <JCHEM_DONOR_COUNT>
1

> <JCHEM_ACIDIC_PKA>
4.44

> <JCHEM_BASIC_PKA>
-7.5

> <JCHEM_PHYSIOLOGICAL_CHARGE>
-1

> <ALOGPS_LOGP>
5.06

> <JCHEM_LOGP>
5.14

> <ALOGPS_LOGS>
-5.1

> <JCHEM_POLARIZABILITY>
31.76

> <JCHEM_POLAR_SURFACE_AREA>
54.37

> <JCHEM_REFRACTIVITY>
73.18

> <JCHEM_ROTATABLE_BOND_COUNT>
13

> <ALOGPS_SOLUBILITY>
2.11e-03 g/l __ 

$$$$
