
  Mrv0541 02231217532D          

 20 19  0  0  0  0            999 V2000
    5.6645    8.2204    0.0000 C   0  0  0  0  0  0  0  0  0  0  0  0
    4.9500    7.8079    0.0000 C   0  0  0  0  0  0  0  0  0  0  0  0
    4.9500    6.9829    0.0000 C   0  0  0  0  0  0  0  0  0  0  0  0
    4.2355    6.5704    0.0000 C   0  0  0  0  0  0  0  0  0  0  0  0
    4.2355    5.7454    0.0000 C   0  0  0  0  0  0  0  0  0  0  0  0
    3.5211    5.3329    0.0000 C   0  0  0  0  0  0  0  0  0  0  0  0
    3.5211    4.5079    0.0000 C   0  0  0  0  0  0  0  0  0  0  0  0
    4.2355    4.0954    0.0000 C   0  0  0  0  0  0  0  0  0  0  0  0
    4.2355    3.2704    0.0000 C   0  0  0  0  0  0  0  0  0  0  0  0
    4.9500    2.8579    0.0000 C   0  0  0  0  0  0  0  0  0  0  0  0
    5.6645    3.2704    0.0000 C   0  0  0  0  0  0  0  0  0  0  0  0
    6.3789    2.8579    0.0000 C   0  0  0  0  0  0  0  0  0  0  0  0
    7.0934    3.2704    0.0000 C   0  0  0  0  0  0  0  0  0  0  0  0
    7.8079    2.8579    0.0000 C   0  0  0  0  0  0  0  0  0  0  0  0
    8.5224    3.2704    0.0000 C   0  0  0  0  0  0  0  0  0  0  0  0
    9.2368    2.8579    0.0000 C   0  0  0  0  0  0  0  0  0  0  0  0
    9.9513    3.2704    0.0000 C   0  0  0  0  0  0  0  0  0  0  0  0
   10.6658    2.8579    0.0000 C   0  0  0  0  0  0  0  0  0  0  0  0
   11.3802    3.2704    0.0000 O   0  0  0  0  0  0  0  0  0  0  0  0
   10.6658    2.0329    0.0000 O   0  0  0  0  0  0  0  0  0  0  0  0
  1  2  1  0  0  0  0
  2  3  1  0  0  0  0
  3  4  1  0  0  0  0
  4  5  1  0  0  0  0
  5  6  1  0  0  0  0
  6  7  2  0  0  0  0
  7  8  1  0  0  0  0
  8  9  2  0  0  0  0
  9 10  1  0  0  0  0
 10 11  1  0  0  0  0
 11 12  1  0  0  0  0
 12 13  1  0  0  0  0
 13 14  1  0  0  0  0
 14 15  1  0  0  0  0
 15 16  1  0  0  0  0
 16 17  1  0  0  0  0
 17 18  1  0  0  0  0
 18 19  1  0  0  0  0
 18 20  2  0  0  0  0
M  END
> <DRUGBANK_ID>
DB04746

> <DRUG_GROUPS>
experimental

> <GENERIC_NAME>
(10E,12Z)-octadeca-10,12-dienoic acid

> <SYNONYMS>
10-TRANS-12-CIS-OCTADECADIENOIC ACID

> <CHEMICAL_FORMULA>
C18H32O2

> <MOLECULAR_WEIGHT>
280.4455

> <EXACT_MASS>
280.240230268

> <IUPAC_NAME>
(10E,12Z)-octadeca-10,12-dienoic acid

> <IUPAC_TRADITIONAL_NAME>
(10E,12Z)-octadeca-10,12-dienoic acid

> <INCHI_IDENTIFIER>
InChI=1S/C18H32O2/c1-2-3-4-5-6-7-8-9-10-11-12-13-14-15-16-17-18(19)20/h6-9H,2-5,10-17H2,1H3,(H,19,20)/b7-6-,9-8+

> <INCHI_KEY>
InChIKey=GKJZMAHZJGSBKD-NMMTYZSQSA-N

> <SMILES>
CCCCC\C=C/C=C/CCCCCCCCC(O)=O

> <JCHEM_ACCEPTOR_COUNT>
2

> <JCHEM_DONOR_COUNT>
1

> <JCHEM_ACIDIC_PKA>
5.02

> <JCHEM_PHYSIOLOGICAL_CHARGE>
-1

> <ALOGPS_LOGP>
7.1

> <JCHEM_LOGP>
6.42

> <ALOGPS_LOGS>
-6.3

> <JCHEM_POLARIZABILITY>
36.57

> <JCHEM_POLAR_SURFACE_AREA>
37.3

> <JCHEM_REFRACTIVITY>
88.52

> <JCHEM_ROTATABLE_BOND_COUNT>
14

> <ALOGPS_SOLUBILITY>
1.49e-04 g/l __ 

$$$$
