
  Mrv0541 02231217362D          

 11 11  0  0  0  0            999 V2000
   -2.8579   -1.6500    0.0000 N   0  0  0  0  0  0  0  0  0  0  0  0
   -2.1434   -2.0625    0.0000 C   0  0  0  0  0  0  0  0  0  0  0  0
   -1.4289   -1.6500    0.0000 C   0  0  0  0  0  0  0  0  0  0  0  0
   -0.7145   -2.0625    0.0000 C   0  0  0  0  0  0  0  0  0  0  0  0
    0.0000   -1.6500    0.0000 C   0  0  0  0  0  0  0  0  0  0  0  0
    0.7145   -2.0625    0.0000 C   0  0  0  0  0  0  0  0  0  0  0  0
    1.4289   -1.6500    0.0000 C   0  0  0  0  0  0  0  0  0  0  0  0
    2.1434   -2.0625    0.0000 C   0  0  0  0  0  0  0  0  0  0  0  0
    2.1434   -2.8875    0.0000 C   0  0  0  0  0  0  0  0  0  0  0  0
    1.4289   -3.3000    0.0000 C   0  0  0  0  0  0  0  0  0  0  0  0
    0.7145   -2.8875    0.0000 C   0  0  0  0  0  0  0  0  0  0  0  0
  1  2  1  0  0  0  0
  2  3  1  0  0  0  0
  3  4  1  0  0  0  0
  4  5  1  0  0  0  0
  5  6  1  0  0  0  0
  6  7  2  0  0  0  0
  7  8  1  0  0  0  0
  8  9  2  0  0  0  0
  9 10  1  0  0  0  0
 10 11  2  0  0  0  0
  6 11  1  0  0  0  0
M  END
> <DRUGBANK_ID>
DB04311

> <DRUG_GROUPS>
experimental

> <GENERIC_NAME>
4-Phenylbutylamine

> <CHEMICAL_FORMULA>
C10H15N

> <MOLECULAR_WEIGHT>
149.2328

> <EXACT_MASS>
149.120449485

> <IUPAC_NAME>
4-phenylbutan-1-amine

> <IUPAC_TRADITIONAL_NAME>
4-phenylbutylamine

> <INCHI_IDENTIFIER>
InChI=1S/C10H15N/c11-9-5-4-8-10-6-2-1-3-7-10/h1-3,6-7H,4-5,8-9,11H2

> <INCHI_KEY>
InChIKey=AGNFWIZBEATIAK-UHFFFAOYSA-N

> <SMILES>
NCCCCC1=CC=CC=C1

> <JCHEM_ACCEPTOR_COUNT>
1

> <JCHEM_DONOR_COUNT>
1

> <JCHEM_BASIC_PKA>
10.21

> <JCHEM_PHYSIOLOGICAL_CHARGE>
1

> <ALOGPS_LOGP>
2.3

> <JCHEM_LOGP>
2.28

> <ALOGPS_LOGS>
-2.5

> <JCHEM_POLARIZABILITY>
18.48

> <JCHEM_POLAR_SURFACE_AREA>
26.02

> <JCHEM_REFRACTIVITY>
48.49

> <JCHEM_ROTATABLE_BOND_COUNT>
4

> <ALOGPS_SOLUBILITY>
4.32e-01 g/l __ 

$$$$
