
  Mrv0541 02231217312D          

  6  5  0  0  0  0            999 V2000
    0.8250    1.4289    0.0000 C   0  0  0  0  0  0  0  0  0  0  0  0
    1.2375    0.7145    0.0000 C   0  0  0  0  0  0  0  0  0  0  0  0
    2.0625    0.7145    0.0000 N   0  3  0  0  0  0  0  0  0  0  0  0
    0.8250    0.0000    0.0000 C   0  0  0  0  0  0  0  0  0  0  0  0
    1.2375   -0.7145    0.0000 O   0  5  0  0  0  0  0  0  0  0  0  0
    0.0000    0.0000    0.0000 O   0  0  0  0  0  0  0  0  0  0  0  0
  1  2  1  0  0  0  0
  2  3  2  0  0  0  0
  2  4  1  0  0  0  0
  4  5  1  0  0  0  0
  4  6  2  0  0  0  0
M  END
> <DRUGBANK_ID>
DB04212

> <DRUG_GROUPS>
experimental

> <GENERIC_NAME>
2-Iminiopropanoate

> <CHEMICAL_FORMULA>
C3H5NO2

> <MOLECULAR_WEIGHT>
87.0773

> <EXACT_MASS>
87.032028409

> <IUPAC_NAME>
2-iminiumylpropanoate

> <IUPAC_TRADITIONAL_NAME>
2-iminiopropanoate

> <INCHI_IDENTIFIER>
InChI=1S/C3H5NO2/c1-2(4)3(5)6/h4H,1H3,(H,5,6)

> <INCHI_KEY>
InChIKey=DUAWRLXHCUAWMK-UHFFFAOYSA-N

> <SMILES>
CC(=[NH2+])C([O-])=O

> <JCHEM_ACCEPTOR_COUNT>
2

> <JCHEM_DONOR_COUNT>
1

> <JCHEM_ACIDIC_PKA>
4.1

> <JCHEM_BASIC_PKA>
3.32

> <JCHEM_PHYSIOLOGICAL_CHARGE>
-1

> <ALOGPS_LOGP>
-1.1

> <JCHEM_LOGP>
-0.43

> <ALOGPS_LOGS>
-0.23

> <JCHEM_POLARIZABILITY>
7.73

> <JCHEM_POLAR_SURFACE_AREA>
65.72

> <JCHEM_REFRACTIVITY>
42.1

> <JCHEM_ROTATABLE_BOND_COUNT>
1

> <ALOGPS_SOLUBILITY>
8.35e+01 g/l __ 

$$$$
