
  Mrv0541 02231217342D          

 27 27  0  0  1  0            999 V2000
    3.5202   -0.5707    0.0000 C   0  0  0  0  0  0  0  0  0  0  0  0
    3.6485   -1.3857    0.0000 C   0  0  2  0  0  0  0  0  0  0  0  0
    3.0069   -1.9043    0.0000 N   0  0  0  0  0  0  0  0  0  0  0  0
    2.2370   -1.6079    0.0000 C   0  0  0  0  0  0  0  0  0  0  0  0
    2.1086   -0.7930    0.0000 O   0  0  0  0  0  0  0  0  0  0  0  0
    1.5953   -2.1265    0.0000 C   0  0  0  0  0  0  0  0  0  0  0  0
    0.8254   -1.8302    0.0000 N   0  0  0  0  0  0  0  0  0  0  0  0
    0.1838   -2.3488    0.0000 C   0  0  0  0  0  0  0  0  0  0  0  0
    0.3121   -3.1638    0.0000 O   0  0  0  0  0  0  0  0  0  0  0  0
   -0.5861   -2.0525    0.0000 C   0  0  1  0  0  0  0  0  0  0  0  0
   -0.7145   -1.2375    0.0000 N   0  0  0  0  0  0  0  0  0  0  0  0
   -1.4844   -0.9412    0.0000 C   0  0  0  0  0  0  0  0  0  0  0  0
   -2.1260   -1.4598    0.0000 N   0  0  0  0  0  0  0  0  0  0  0  0
   -1.6127   -0.1262    0.0000 N   0  0  0  0  0  0  0  0  0  0  0  0
   -1.2278   -2.5711    0.0000 C   0  0  0  0  0  0  0  0  0  0  0  0
   -1.0994   -3.3860    0.0000 C   0  0  0  0  0  0  0  0  0  0  0  0
   -1.7411   -3.9046    0.0000 C   0  0  0  0  0  0  0  0  0  0  0  0
   -2.5110   -3.6083    0.0000 C   0  0  0  0  0  0  0  0  0  0  0  0
   -2.6393   -2.7933    0.0000 C   0  0  0  0  0  0  0  0  0  0  0  0
   -1.9977   -2.2747    0.0000 C   0  0  0  0  0  0  0  0  0  0  0  0
    4.4184   -1.6820    0.0000 C   0  0  0  0  0  0  0  0  0  0  0  0
    4.5468   -2.4970    0.0000 O   0  0  0  0  0  0  0  0  0  0  0  0
    5.0601   -1.1634    0.0000 N   0  0  0  0  0  0  0  0  0  0  0  0
    5.8300   -1.4598    0.0000 C   0  0  0  0  0  0  0  0  0  0  0  0
    6.4716   -0.9412    0.0000 C   0  0  0  0  0  0  0  0  0  0  0  0
    7.2415   -1.2375    0.0000 C   0  0  0  0  0  0  0  0  0  0  0  0
    7.8832   -0.7189    0.0000 S   0  0  0  0  0  0  0  0  0  0  0  0
  2  1  1  1  0  0  0
  2  3  1  0  0  0  0
  3  4  1  0  0  0  0
  4  5  2  0  0  0  0
  4  6  1  0  0  0  0
  6  7  1  0  0  0  0
  7  8  1  0  0  0  0
  8  9  2  0  0  0  0
  8 10  1  0  0  0  0
 10 11  1  6  0  0  0
 11 12  1  0  0  0  0
 12 13  1  0  0  0  0
 12 14  2  0  0  0  0
 10 15  1  0  0  0  0
 15 16  1  0  0  0  0
 16 17  1  0  0  0  0
 17 18  1  0  0  0  0
 18 19  1  0  0  0  0
 19 20  1  0  0  0  0
 15 20  1  0  0  0  0
  2 21  1  0  0  0  0
 21 22  2  0  0  0  0
 21 23  1  0  0  0  0
 23 24  1  0  0  0  0
 24 25  1  0  0  0  0
 25 26  1  0  0  0  0
 26 27  1  0  0  0  0
M  END
> <DRUGBANK_ID>
DB04278

> <DRUG_GROUPS>
experimental

> <GENERIC_NAME>
2-[2-(2-Cyclohexyl-2-Guanidino-Acetylamino)-Acetylamino]-N-(3-Mercapto-Propyl)-Propionamide

> <CHEMICAL_FORMULA>
C17H32N6O3S

> <MOLECULAR_WEIGHT>
400.539

> <EXACT_MASS>
400.22565961

> <IUPAC_NAME>
(2S)-2-{2-[(2S)-2-carbamimidamido-2-cyclohexylacetamido]acetamido}-N-(3-sulfanylpropyl)propanamide

> <IUPAC_TRADITIONAL_NAME>
(2S)-2-{2-[(2S)-2-carbamimidamido-2-cyclohexylacetamido]acetamido}-N-(3-sulfanylpropyl)propanamide

> <INCHI_IDENTIFIER>
InChI=1S/C17H32N6O3S/c1-11(15(25)20-8-5-9-27)22-13(24)10-21-16(26)14(23-17(18)19)12-6-3-2-4-7-12/h11-12,14,27H,2-10H2,1H3,(H,20,25)(H,21,26)(H,22,24)(H4,18,19,23)/t11-,14-/m0/s1

> <INCHI_KEY>
InChIKey=YLLNYDDZOMCFDE-FZMZJTMJSA-N

> <SMILES>
C[C@H](NC(=O)CNC(=O)[C@@H](NC(N)=N)C1CCCCC1)C(=O)NCCCS

> <JCHEM_ACCEPTOR_COUNT>
6

> <JCHEM_DONOR_COUNT>
7

> <JCHEM_ACIDIC_PKA>
10.16

> <JCHEM_BASIC_PKA>
11.41

> <JCHEM_PHYSIOLOGICAL_CHARGE>
1

> <ALOGPS_LOGP>
0.67

> <JCHEM_LOGP>
-0.32

> <ALOGPS_LOGS>
-3.9

> <JCHEM_POLARIZABILITY>
42.88

> <JCHEM_POLAR_SURFACE_AREA>
149.2

> <JCHEM_REFRACTIVITY>
116.21

> <JCHEM_ROTATABLE_BOND_COUNT>
10

> <ALOGPS_SOLUBILITY>
5.25e-02 g/l __ 

$$$$
