
  Mrv0541 02231217532D          

 48 51  0  0  1  0            999 V2000
    0.0418   -2.8182    0.0000 C   0  0  0  0  0  0  0  0  0  0  0  0
    0.8345   -3.0470    0.0000 C   0  0  0  0  0  0  0  0  0  0  0  0
    1.0326   -3.8479    0.0000 C   0  0  0  0  0  0  0  0  0  0  0  0
    1.4289   -2.4750    0.0000 C   0  0  0  0  0  0  0  0  0  0  0  0
    2.2216   -2.7038    0.0000 N   0  0  0  0  0  0  0  0  0  0  0  0
    2.8161   -2.1318    0.0000 C   0  0  0  0  0  0  0  0  0  0  0  0
    3.6087   -2.3606    0.0000 C   0  0  1  0  0  0  0  0  0  0  0  0
    3.8068   -3.1614    0.0000 O   0  0  0  0  0  0  0  0  0  0  0  0
    4.2032   -1.7886    0.0000 C   0  0  2  0  0  0  0  0  0  0  0  0
    4.0050   -0.9877    0.0000 C   0  0  0  0  0  0  0  0  0  0  0  0
    3.2124   -0.7589    0.0000 C   0  0  0  0  0  0  0  0  0  0  0  0
    2.6179   -1.3309    0.0000 C   0  0  0  0  0  0  0  0  0  0  0  0
    1.8253   -1.1021    0.0000 C   0  0  0  0  0  0  0  0  0  0  0  0
    1.6271   -0.3013    0.0000 C   0  0  0  0  0  0  0  0  0  0  0  0
    2.2216    0.2708    0.0000 C   0  0  0  0  0  0  0  0  0  0  0  0
    3.0142    0.0420    0.0000 C   0  0  0  0  0  0  0  0  0  0  0  0
    4.9958   -2.0174    0.0000 N   0  0  0  0  0  0  0  0  0  0  0  0
    5.5903   -1.4453    0.0000 C   0  0  0  0  0  0  0  0  0  0  0  0
    5.3921   -0.6445    0.0000 O   0  0  0  0  0  0  0  0  0  0  0  0
    6.3829   -1.6742    0.0000 C   0  0  2  0  0  0  0  0  0  0  0  0
    6.5811   -2.4750    0.0000 C   0  0  0  0  0  0  0  0  0  0  0  0
    7.3737   -2.7038    0.0000 C   0  0  0  0  0  0  0  0  0  0  0  0
    5.9866   -3.0470    0.0000 C   0  0  0  0  0  0  0  0  0  0  0  0
    6.9774   -1.1021    0.0000 N   0  0  0  0  0  0  0  0  0  0  0  0
    7.7896   -1.2468    0.0000 C   0  0  0  0  0  0  0  0  0  0  0  0
    8.1782   -0.5191    0.0000 C   0  0  0  0  0  0  0  0  0  0  0  0
    7.6062    0.0754    0.0000 N   0  0  0  0  0  0  0  0  0  0  0  0
    7.7509    0.8876    0.0000 C   0  0  0  0  0  0  0  0  0  0  0  0
    7.1198    1.4190    0.0000 C   0  0  0  0  0  0  0  0  0  0  0  0
    6.3190    1.2209    0.0000 C   0  0  0  0  0  0  0  0  0  0  0  0
    5.8831    1.9213    0.0000 S   0  0  0  0  0  0  0  0  0  0  0  0
    6.4145    2.5523    0.0000 C   0  0  0  0  0  0  0  0  0  0  0  0
    6.2163    3.3532    0.0000 C   0  0  0  0  0  0  0  0  0  0  0  0
    7.1789    2.2419    0.0000 N   0  0  0  0  0  0  0  0  0  0  0  0
    6.8640   -0.2849    0.0000 C   0  0  0  0  0  0  0  0  0  0  0  0
    6.1363    0.1037    0.0000 O   0  0  0  0  0  0  0  0  0  0  0  0
    2.4197   -3.5047    0.0000 S   0  0  0  0  0  0  0  0  0  0  0  0
    1.6189   -3.7028    0.0000 O   0  0  0  0  0  0  0  0  0  0  0  0
    3.2206   -3.3065    0.0000 O   0  0  0  0  0  0  0  0  0  0  0  0
    2.6179   -4.3055    0.0000 C   0  0  0  0  0  0  0  0  0  0  0  0
    3.4105   -4.5343    0.0000 C   0  0  0  0  0  0  0  0  0  0  0  0
    3.6087   -5.3352    0.0000 C   0  0  0  0  0  0  0  0  0  0  0  0
    3.0142   -5.9072    0.0000 C   0  0  0  0  0  0  0  0  0  0  0  0
    2.2216   -5.6784    0.0000 C   0  0  0  0  0  0  0  0  0  0  0  0
    2.0234   -4.8775    0.0000 C   0  0  0  0  0  0  0  0  0  0  0  0
    3.2124   -6.7081    0.0000 C   0  0  0  0  0  0  0  0  0  0  0  0
    2.6179   -7.2801    0.0000 N   0  0  0  0  0  0  0  0  0  0  0  0
    2.8161   -8.0809    0.0000 O   0  0  0  0  0  0  0  0  0  0  0  0
  1  2  1  0  0  0  0
  2  3  1  0  0  0  0
  2  4  1  0  0  0  0
  4  5  1  0  0  0  0
  5  6  1  0  0  0  0
  6  7  1  0  0  0  0
  7  8  1  6  0  0  0
  7  9  1  0  0  0  0
  9 10  1  0  0  0  0
 10 11  1  0  0  0  0
 11 12  2  0  0  0  0
 12 13  1  0  0  0  0
 13 14  2  0  0  0  0
 14 15  1  0  0  0  0
 15 16  2  0  0  0  0
 11 16  1  0  0  0  0
  9 17  1  6  0  0  0
 17 18  1  0  0  0  0
 18 19  2  0  0  0  0
 18 20  1  0  0  0  0
 20 21  1  0  0  0  0
 21 22  1  0  0  0  0
 21 23  1  0  0  0  0
 20 24  1  1  0  0  0
 24 25  1  0  0  0  0
 25 26  1  0  0  0  0
 26 27  1  0  0  0  0
 27 28  1  0  0  0  0
 28 29  1  0  0  0  0
 29 30  2  0  0  0  0
 30 31  1  0  0  0  0
 31 32  1  0  0  0  0
 32 33  1  0  0  0  0
 32 34  2  0  0  0  0
 29 34  1  0  0  0  0
 27 35  1  0  0  0  0
 24 35  1  0  0  0  0
 35 36  2  0  0  0  0
  5 37  1  0  0  0  0
 37 38  2  0  0  0  0
 37 39  2  0  0  0  0
 37 40  1  0  0  0  0
 40 41  2  0  0  0  0
 41 42  1  0  0  0  0
 42 43  2  0  0  0  0
 43 44  1  0  0  0  0
 44 45  2  0  0  0  0
 40 45  1  0  0  0  0
 43 46  1  0  0  0  0
 46 47  2  0  0  0  0
 47 48  1  0  0  0  0
M  END
> <DRUGBANK_ID>
DB04748

> <DRUG_GROUPS>
experimental

> <GENERIC_NAME>
OXIMINOARYLSULFONAMIDE

> <CHEMICAL_FORMULA>
C34H46N6O6S2

> <MOLECULAR_WEIGHT>
698.896

> <EXACT_MASS>
698.292024614

> <IUPAC_NAME>
(2S)-N-[(2S,3R)-3-hydroxy-4-[N-(2-methylpropyl){4-[(1E)-(hydroxyimino)methyl]benzene}sulfonamido]-1-phenylbutan-2-yl]-3-methyl-2-{3-[(2-methyl-1,3-thiazol-4-yl)methyl]-2-oxoimidazolidin-1-yl}butanamide

> <IUPAC_TRADITIONAL_NAME>
oximinoarylsulfonamide

> <INCHI_IDENTIFIER>
InChI=1S/C34H46N6O6S2/c1-23(2)19-39(48(45,46)29-13-11-27(12-14-29)18-35-44)21-31(41)30(17-26-9-7-6-8-10-26)37-33(42)32(24(3)4)40-16-15-38(34(40)43)20-28-22-47-25(5)36-28/h6-14,18,22-24,30-32,41,44H,15-17,19-21H2,1-5H3,(H,37,42)/b35-18+/t30-,31+,32-/m0/s1

> <INCHI_KEY>
InChIKey=PJLSJXTZOMOVBI-KKWNBLJUSA-N

> <SMILES>
C(C)(C)CN(C[C@@H](O)[C@@H](NC(=O)[C@H](C(C)C)N1CCN(CC2=CSC(C)=N2)C1=O)CC1=CC=CC=C1)S(=O)(=O)C1=CC=C(C=C1)\C=N\O

> <JCHEM_ACCEPTOR_COUNT>
8

> <JCHEM_DONOR_COUNT>
3

> <JCHEM_ACIDIC_PKA>
7.05

> <JCHEM_BASIC_PKA>
2.89

> <JCHEM_PHYSIOLOGICAL_CHARGE>
0

> <ALOGPS_LOGP>
3.17

> <JCHEM_LOGP>
3.56

> <ALOGPS_LOGS>
-4.9

> <JCHEM_POLARIZABILITY>
74.3

> <JCHEM_POLAR_SURFACE_AREA>
155.74

> <JCHEM_REFRACTIVITY>
185.98

> <JCHEM_ROTATABLE_BOND_COUNT>
15

> <ALOGPS_SOLUBILITY>
9.41e-03 g/l __ 

$$$$
