
  Mrv0541 02231217342D          

 11 12  0  0  0  0            999 V2000
    3.2789    2.0625    0.0000 O    0  0  0  0  0  0  0  0  0  0  0  0
    3.2789    1.2375    0.0000 C    0  0  0  0  0  0  0  0  0  0  0  0
    3.9934    0.8250    0.0000 N    0  0  0  0  0  0  0  0  0  0  0  0
    3.9934    0.0000    0.0000 C    0  0  0  0  0  0  0  0  0  0  0  0
    4.7079   -0.4125    0.0000 Br   0  0  0  0  0  0  0  0  0  0  0  0
    3.2789   -0.4125    0.0000 N    0  0  0  0  0  0  0  0  0  0  0  0
    2.5645    0.0000    0.0000 C    0  0  0  0  0  0  0  0  0  0  0  0
    1.7798   -0.2549    0.0000 N    0  0  0  0  0  0  0  0  0  0  0  0
    1.2949    0.4125    0.0000 C    0  0  0  0  0  0  0  0  0  0  0  0
    1.7798    1.0799    0.0000 N    0  0  0  0  0  0  0  0  0  0  0  0
    2.5645    0.8250    0.0000 C    0  0  0  0  0  0  0  0  0  0  0  0
  1  2  1  0  0  0  0
  2  3  4  0  0  0  0
  3  4  4  0  0  0  0
  4  5  1  0  0  0  0
  4  6  4  0  0  0  0
  6  7  4  0  0  0  0
  7  8  4  0  0  0  0
  8  9  4  0  0  0  0
  9 10  4  0  0  0  0
 10 11  4  0  0  0  0
  2 11  4  0  0  0  0
  7 11  4  0  0  0  0
M  END
> <DRUGBANK_ID>
DB04283

> <DRUG_GROUPS>
experimental

> <GENERIC_NAME>
2-Bromo-6-Hydroxy-Purine

> <CHEMICAL_FORMULA>
C5H2BrN4O

> <MOLECULAR_WEIGHT>
214

> <EXACT_MASS>
212.941198353

> <IUPAC_NAME>
2-bromopurin-6-ol

> <IUPAC_TRADITIONAL_NAME>
2-bromo-6-hydroxy-purine

> <INCHI_IDENTIFIER>
InChI=1S/C5H2BrN4O/c6-5-9-3-2(4(11)10-5)7-1-8-3/h1H,(H,8,9,10,11)

> <INCHI_KEY>
InChIKey=OIHFYVJMRVHWJI-UHFFFAOYSA-N

> <SMILES>
Oc1nc(Br)nc2ncnc12

> <JCHEM_ACCEPTOR_COUNT>
5

> <JCHEM_DONOR_COUNT>
1

> <JCHEM_ACIDIC_PKA>
9.84

> <JCHEM_BASIC_PKA>
-2.9

> <JCHEM_PHYSIOLOGICAL_CHARGE>
0

> <ALOGPS_LOGP>
0.68

> <JCHEM_LOGP>
1.23

> <ALOGPS_LOGS>
-2.1

> <JCHEM_POLARIZABILITY>
15.11

> <JCHEM_POLAR_SURFACE_AREA>
71.79

> <JCHEM_REFRACTIVITY>
42.71

> <JCHEM_ROTATABLE_BOND_COUNT>
0

> <ALOGPS_SOLUBILITY>
1.52e+00 g/l __ 

$$$$
