
  Mrv0541 02231217522D          

 55 56  0  0  1  0            999 V2000
    0.1062   -2.4139    0.0000 C   0  0  0  0  0  0  0  0  0  0  0  0
    0.8879   -2.6777    0.0000 C   0  0  0  0  0  0  0  0  0  0  0  0
    1.5072   -2.1326    0.0000 C   0  0  2  0  0  0  0  0  0  0  0  0
    0.7849   -1.7340    0.0000 N   0  0  0  0  0  0  0  0  0  0  0  0
    0.0379   -2.0841    0.0000 C   0  0  0  0  0  0  0  0  0  0  0  0
    0.9408   -0.9239    0.0000 C   0  0  0  0  0  0  0  0  0  0  0  0
    0.3770   -0.3216    0.0000 O   0  0  0  0  0  0  0  0  0  0  0  0
    1.7595   -0.8218    0.0000 C   0  0  0  0  0  0  0  0  0  0  0  0
    2.3796   -0.1657    0.0000 C   0  0  0  0  0  0  0  0  0  0  0  0
    3.1897   -0.3216    0.0000 C   0  0  1  0  0  0  0  0  0  0  0  0
    3.7298    0.3020    0.0000 N   0  0  0  0  0  0  0  0  0  0  0  0
    4.5399    0.1461    0.0000 C   0  0  0  0  0  0  0  0  0  0  0  0
    4.8100   -0.6334    0.0000 O   0  0  0  0  0  0  0  0  0  0  0  0
    5.0800    0.7698    0.0000 C   0  0  1  0  0  0  0  0  0  0  0  0
    4.8100    1.5493    0.0000 C   0  0  0  0  0  0  0  0  0  0  0  0
    5.8901    0.6139    0.0000 C   0  0  2  0  0  0  0  0  0  0  0  0
    6.4302    1.2375    0.0000 C   0  0  0  0  0  0  0  0  0  0  0  0
    7.2404    1.0816    0.0000 C   0  0  0  0  0  0  0  0  0  0  0  0
    7.7805    1.7052    0.0000 C   0  0  1  0  0  0  0  0  0  0  0  0
    7.5104    2.4848    0.0000 C   0  0  0  0  0  0  0  0  0  0  0  0
    8.5906    1.5493    0.0000 C   0  0  0  0  0  0  0  0  0  0  0  0
    9.1307    2.1730    0.0000 C   0  0  2  0  0  0  0  0  0  0  0  0
    8.8606    2.9525    0.0000 C   0  0  0  0  0  0  0  0  0  0  0  0
    9.9408    2.0171    0.0000 C   0  0  2  0  0  0  0  0  0  0  0  0
   10.4809    2.6407    0.0000 C   0  0  0  0  0  0  0  0  0  0  0  0
   11.2910    2.4848    0.0000 C   0  0  0  0  0  0  0  0  0  0  0  0
   11.8311    3.1084    0.0000 C   0  0  0  0  0  0  0  0  0  0  0  0
   12.6413    2.9525    0.0000 C   0  0  0  0  0  0  0  0  0  0  0  0
   12.9113    2.1730    0.0000 C   0  0  0  0  0  0  0  0  0  0  0  0
   12.3712    1.5493    0.0000 C   0  0  0  0  0  0  0  0  0  0  0  0
   11.5611    1.7052    0.0000 C   0  0  0  0  0  0  0  0  0  0  0  0
   10.2109    1.2375    0.0000 O   0  0  0  0  0  0  0  0  0  0  0  0
    9.6708    0.6139    0.0000 C   0  0  0  0  0  0  0  0  0  0  0  0
    6.1602   -0.1657    0.0000 N   0  0  0  0  0  0  0  0  0  0  0  0
    5.6201   -0.7893    0.0000 C   0  0  0  0  0  0  0  0  0  0  0  0
    4.8731   -1.1394    0.0000 O   0  0  0  0  0  0  0  0  0  0  0  0
    5.8901   -1.5689    0.0000 C   0  0  1  0  0  0  0  0  0  0  0  0
    5.3501   -2.1925    0.0000 N   0  0  0  0  0  0  0  0  0  0  0  0
    4.5399   -2.0366    0.0000 C   0  0  0  0  0  0  0  0  0  0  0  0
    4.2699   -1.2571    0.0000 O   0  0  0  0  0  0  0  0  0  0  0  0
    3.9998   -2.6603    0.0000 C   0  0  1  0  0  0  0  0  0  0  0  0
    4.2699   -3.4398    0.0000 C   0  0  0  0  0  0  0  0  0  0  0  0
    3.1897   -2.5043    0.0000 C   0  0  1  0  0  0  0  0  0  0  0  0
    2.6496   -3.1280    0.0000 N   0  0  0  0  0  0  0  0  0  0  0  0
    1.8395   -2.9721    0.0000 C   0  0  0  0  0  0  0  0  0  0  0  0
    1.3131   -3.6073    0.0000 O   0  0  0  0  0  0  0  0  0  0  0  0
    3.4597   -3.2839    0.0000 C   0  0  0  0  0  0  0  0  0  0  0  0
    2.9197   -3.9075    0.0000 O   0  0  0  0  0  0  0  0  0  0  0  0
    4.0235   -3.8862    0.0000 O   0  0  0  0  0  0  0  0  0  0  0  0
    6.7003   -1.7248    0.0000 C   0  0  0  0  0  0  0  0  0  0  0  0
    6.9703   -2.5043    0.0000 C   0  0  0  0  0  0  0  0  0  0  0  0
    7.2404   -1.1012    0.0000 C   0  0  0  0  0  0  0  0  0  0  0  0
    2.9197    0.4579    0.0000 C   0  0  0  0  0  0  0  0  0  0  0  0
    3.4597    1.0816    0.0000 O   0  0  0  0  0  0  0  0  0  0  0  0
    2.1095    0.6139    0.0000 O   0  0  0  0  0  0  0  0  0  0  0  0
  1  2  1  0  0  0  0
  3  2  1  1  0  0  0
  3  4  1  0  0  0  0
  4  5  1  0  0  0  0
  4  6  1  0  0  0  0
  6  7  2  0  0  0  0
  6  8  1  0  0  0  0
  8  9  1  0  0  0  0
  9 10  1  0  0  0  0
 10 11  1  0  0  0  0
 11 12  1  0  0  0  0
 12 13  2  0  0  0  0
 12 14  1  0  0  0  0
 14 15  1  1  0  0  0
 14 16  1  0  0  0  0
 16 17  1  6  0  0  0
 17 18  1  0  0  0  0
 18 19  1  0  0  0  0
 19 20  1  1  0  0  0
 19 21  1  0  0  0  0
 21 22  1  0  0  0  0
 22 23  1  6  0  0  0
 22 24  1  0  0  0  0
 24 25  1  0  0  0  0
 25 26  1  0  0  0  0
 26 27  2  0  0  0  0
 27 28  1  0  0  0  0
 28 29  2  0  0  0  0
 29 30  1  0  0  0  0
 30 31  2  0  0  0  0
 26 31  1  0  0  0  0
 24 32  1  6  0  0  0
 32 33  1  0  0  0  0
 16 34  1  0  0  0  0
 34 35  1  0  0  0  0
 35 36  2  0  0  0  0
 35 37  1  0  0  0  0
 37 38  1  0  0  0  0
 38 39  1  0  0  0  0
 39 40  2  0  0  0  0
 39 41  1  0  0  0  0
 41 42  1  1  0  0  0
 41 43  1  0  0  0  0
 43 44  1  0  0  0  0
 44 45  1  0  0  0  0
  3 45  1  0  0  0  0
 45 46  2  0  0  0  0
 43 47  1  1  0  0  0
 47 48  1  0  0  0  0
 47 49  2  0  0  0  0
 37 50  1  6  0  0  0
 50 51  1  0  0  0  0
 50 52  1  0  0  0  0
 10 53  1  1  0  0  0
 53 54  1  0  0  0  0
 53 55  2  0  0  0  0
M  END
> <DRUGBANK_ID>
DB04738

> <DRUG_GROUPS>
experimental

> <GENERIC_NAME>
Motuporin

> <SYNONYMS>


> <CHEMICAL_FORMULA>
C40H63N5O10

> <MOLECULAR_WEIGHT>
773.9557

> <EXACT_MASS>
773.457493261

> <IUPAC_NAME>
(2S,5R,6S,9S,12S,13S,16R)-2-ethyl-12-[(3R,5S,6S)-6-methoxy-3,5-dimethyl-7-phenylheptyl]-1,6,13-trimethyl-3,7,10,14,19-pentaoxo-9-(propan-2-yl)-1,4,8,11,15-pentaazacyclononadecane-5,16-dicarboxylic acid

> <IUPAC_TRADITIONAL_NAME>
motuporin

> <INCHI_IDENTIFIER>
InChI=1S/C40H63N5O10/c1-10-30-37(49)44-34(40(53)54)26(7)36(48)43-33(22(2)3)38(50)41-28(25(6)35(47)42-29(39(51)52)18-19-32(46)45(30)8)17-16-23(4)20-24(5)31(55-9)21-27-14-12-11-13-15-27/h11-15,22-26,28-31,33-34H,10,16-21H2,1-9H3,(H,41,50)(H,42,47)(H,43,48)(H,44,49)(H,51,52)(H,53,54)/t23-,24+,25+,26+,28+,29-,30+,31+,33+,34-/m1/s1

> <INCHI_KEY>
InChIKey=MESJISIEDVKBAM-NSKZDGTMSA-N

> <SMILES>
CC[C@@H]1N(C)C(=O)CC[C@@H](NC(=O)[C@@H](C)[C@H](CC[C@@H](C)C[C@H](C)[C@H](CC2=CC=CC=C2)OC)NC(=O)[C@@H](NC(=O)[C@@H](C)[C@@H](NC1=O)C(O)=O)C(C)C)C(O)=O

> <JCHEM_ACCEPTOR_COUNT>
10

> <JCHEM_DONOR_COUNT>
6

> <JCHEM_ACIDIC_PKA>
3.46

> <JCHEM_BASIC_PKA>
-0.63

> <JCHEM_PHYSIOLOGICAL_CHARGE>
-2

> <ALOGPS_LOGP>
2.07

> <JCHEM_LOGP>
3.36

> <ALOGPS_LOGS>
-5

> <JCHEM_POLARIZABILITY>
83.43

> <JCHEM_POLAR_SURFACE_AREA>
220.54

> <JCHEM_REFRACTIVITY>
203.17

> <JCHEM_ROTATABLE_BOND_COUNT>
13

> <ALOGPS_SOLUBILITY>
7.70e-03 g/l __ 

$$$$
