
  Mrv0541 02231217262D          

 23 24  0  0  1  0            999 V2000
    0.7145   -1.2375    0.0000 O   0  0  0  0  0  0  0  0  0  0  0  0
    1.4289   -1.6500    0.0000 C   0  0  0  0  0  0  0  0  0  0  0  0
    1.4289   -2.4750    0.0000 C   0  0  2  0  0  0  0  0  0  0  0  0
    2.1434   -2.8875    0.0000 O   0  0  0  0  0  0  0  0  0  0  0  0
    2.1434   -3.7125    0.0000 C   0  0  2  0  0  0  0  0  0  0  0  0
    2.8579   -4.1250    0.0000 O   0  0  0  0  0  0  0  0  0  0  0  0
    3.5724   -3.7125    0.0000 C   0  0  0  0  0  0  0  0  0  0  0  0
    4.2868   -4.1250    0.0000 C   0  0  2  0  0  0  0  0  0  0  0  0
    5.0013   -3.7125    0.0000 O   0  0  0  0  0  0  0  0  0  0  0  0
    5.7158   -4.1250    0.0000 C   0  0  2  0  0  0  0  0  0  0  0  0
    6.4302   -3.7125    0.0000 O   0  0  0  0  0  0  0  0  0  0  0  0
    5.7158   -4.9500    0.0000 C   0  0  1  0  0  0  0  0  0  0  0  0
    6.4302   -5.3625    0.0000 O   0  0  0  0  0  0  0  0  0  0  0  0
    5.0013   -5.3625    0.0000 C   0  0  2  0  0  0  0  0  0  0  0  0
    5.0013   -6.1875    0.0000 O   0  0  0  0  0  0  0  0  0  0  0  0
    4.2868   -4.9500    0.0000 C   0  0  1  0  0  0  0  0  0  0  0  0
    3.5724   -5.3625    0.0000 O   0  0  0  0  0  0  0  0  0  0  0  0
    1.4289   -4.1250    0.0000 C   0  0  1  0  0  0  0  0  0  0  0  0
    1.4289   -4.9500    0.0000 O   0  0  0  0  0  0  0  0  0  0  0  0
    0.7145   -3.7125    0.0000 C   0  0  2  0  0  0  0  0  0  0  0  0
    0.0000   -4.1250    0.0000 O   0  0  0  0  0  0  0  0  0  0  0  0
    0.7145   -2.8875    0.0000 C   0  0  1  0  0  0  0  0  0  0  0  0
    0.0000   -2.4750    0.0000 O   0  0  0  0  0  0  0  0  0  0  0  0
  1  2  1  0  0  0  0
  3  2  1  6  0  0  0
  3  4  1  0  0  0  0
  4  5  1  0  0  0  0
  5  6  1  6  0  0  0
  6  7  1  0  0  0  0
  8  7  1  6  0  0  0
  8  9  1  0  0  0  0
  9 10  1  0  0  0  0
 10 11  1  6  0  0  0
 10 12  1  0  0  0  0
 12 13  1  1  0  0  0
 12 14  1  0  0  0  0
 14 15  1  6  0  0  0
 14 16  1  0  0  0  0
  8 16  1  0  0  0  0
 16 17  1  1  0  0  0
  5 18  1  0  0  0  0
 18 19  1  1  0  0  0
 18 20  1  0  0  0  0
 20 21  1  6  0  0  0
 20 22  1  0  0  0  0
  3 22  1  0  0  0  0
 22 23  1  1  0  0  0
M  END
> <DRUGBANK_ID>
DB04116

> <DRUG_GROUPS>
experimental

> <GENERIC_NAME>
Allolactose

> <CHEMICAL_FORMULA>
C12H22O11

> <MOLECULAR_WEIGHT>
342.2965

> <EXACT_MASS>
342.116211546

> <IUPAC_NAME>
(2S,3S,4R,5R,6S)-6-({[(2S,3S,4R,5R,6S)-3,4,5-trihydroxy-6-(hydroxymethyl)oxan-2-yl]oxy}methyl)oxane-2,3,4,5-tetrol

> <IUPAC_TRADITIONAL_NAME>
allolactose

> <INCHI_IDENTIFIER>
InChI=1S/C12H22O11/c13-1-3-5(14)8(17)10(19)12(23-3)21-2-4-6(15)7(16)9(18)11(20)22-4/h3-20H,1-2H2/t3-,4-,5-,6-,7+,8+,9-,10-,11-,12-/m0/s1

> <INCHI_KEY>
InChIKey=DLRVVLDZNNYCBX-CAPXFGMSSA-N

> <SMILES>
OC[C@@H]1O[C@H](OC[C@@H]2O[C@H](O)[C@@H](O)[C@H](O)[C@H]2O)[C@@H](O)[C@H](O)[C@H]1O

> <JCHEM_ACCEPTOR_COUNT>
11

> <JCHEM_DONOR_COUNT>
8

> <JCHEM_ACIDIC_PKA>
11.25

> <JCHEM_BASIC_PKA>
-3

> <JCHEM_PHYSIOLOGICAL_CHARGE>
0

> <ALOGPS_LOGP>
-3

> <JCHEM_LOGP>
-4.7

> <ALOGPS_LOGS>
0.17

> <JCHEM_POLARIZABILITY>
31.91

> <JCHEM_POLAR_SURFACE_AREA>
189.53

> <JCHEM_REFRACTIVITY>
68.34

> <JCHEM_ROTATABLE_BOND_COUNT>
4

> <ALOGPS_SOLUBILITY>
5.11e+02 g/l __ 

$$$$
