
  Mrv0541 02231217292D          

 16 15  0  0  1  0            999 V2000
    4.1250   -2.8579    0.0000 C    0  0  0  0  0  0  0  0  0  0  0  0
    3.7125   -2.1434    0.0000 C    0  0  2  0  0  0  0  0  0  0  0  0
    3.3000   -1.4289    0.0000 O    0  0  0  0  0  0  0  0  0  0  0  0
    2.9980   -2.5559    0.0000 C    0  0  0  0  0  0  0  0  0  0  0  0
    2.2836   -2.1434    0.0000 Br   0  0  0  0  0  0  0  0  0  0  0  0
    4.4270   -1.7309    0.0000 C    0  0  0  0  0  0  0  0  0  0  0  0
    5.1414   -2.1434    0.0000 C    0  0  0  0  0  0  0  0  0  0  0  0
    5.8559   -1.7309    0.0000 O    0  0  0  0  0  0  0  0  0  0  0  0
    6.5704   -2.1434    0.0000 P    0  0  2  0  0  0  0  0  0  0  0  0
    6.1579   -2.8579    0.0000 O    0  0  0  0  0  0  0  0  0  0  0  0
    6.9829   -1.4289    0.0000 O    0  0  0  0  0  0  0  0  0  0  0  0
    7.2849   -2.5559    0.0000 O    0  0  0  0  0  0  0  0  0  0  0  0
    7.9993   -2.1434    0.0000 P    0  0  0  0  0  0  0  0  0  0  0  0
    8.7138   -1.7309    0.0000 O    0  0  0  0  0  0  0  0  0  0  0  0
    8.4118   -2.8579    0.0000 O    0  0  0  0  0  0  0  0  0  0  0  0
    7.5868   -1.4289    0.0000 O    0  0  0  0  0  0  0  0  0  0  0  0
  2  1  1  1  0  0  0
  2  3  1  1  0  0  0
  2  4  1  0  0  0  0
  4  5  1  0  0  0  0
  2  6  1  0  0  0  0
  6  7  1  0  0  0  0
  7  8  1  0  0  0  0
  9  8  1  6  0  0  0
  9 10  1  1  0  0  0
  9 11  2  0  0  0  0
  9 12  1  0  0  0  0
 12 13  1  0  0  0  0
 13 14  1  0  0  0  0
 13 15  1  0  0  0  0
 13 16  2  0  0  0  0
M  END
> <DRUGBANK_ID>
DB04170

> <DRUG_GROUPS>
experimental

> <GENERIC_NAME>
4-Bromo-3-Hydroxy-3-Methyl Butyl Diphosphate

> <CHEMICAL_FORMULA>
C5H13BrO8P2

> <MOLECULAR_WEIGHT>
343.003

> <EXACT_MASS>
341.926903063

> <IUPAC_NAME>
({[(3R)-4-bromo-3-hydroxy-3-methylbutoxy](hydroxy)phosphoryl}oxy)phosphonic acid

> <IUPAC_TRADITIONAL_NAME>
[(3R)-4-bromo-3-hydroxy-3-methylbutoxy(hydroxy)phosphoryl]oxyphosphonic acid

> <INCHI_IDENTIFIER>
InChI=1S/C5H13BrO8P2/c1-5(7,4-6)2-3-13-16(11,12)14-15(8,9)10/h7H,2-4H2,1H3,(H,11,12)(H2,8,9,10)/t5-/m1/s1

> <INCHI_KEY>
InChIKey=YKAYCWPQDPILSA-RXMQYKEDSA-N

> <SMILES>
C[C@](O)(CBr)CCO[P@](O)(=O)OP(O)(O)=O

> <JCHEM_ACCEPTOR_COUNT>
6

> <JCHEM_DONOR_COUNT>
4

> <JCHEM_ACIDIC_PKA>
1.78

> <JCHEM_BASIC_PKA>
-3.2

> <JCHEM_PHYSIOLOGICAL_CHARGE>
-2

> <ALOGPS_LOGP>
0.01

> <JCHEM_LOGP>
-0.5

> <ALOGPS_LOGS>
-1.5

> <JCHEM_POLARIZABILITY>
24.12

> <JCHEM_POLAR_SURFACE_AREA>
133.52

> <JCHEM_REFRACTIVITY>
57.8

> <JCHEM_ROTATABLE_BOND_COUNT>
7

> <ALOGPS_SOLUBILITY>
1.01e+01 g/l __ 

$$$$
