
  Mrv0541 02231217572D          

 70 71  0  0  1  0            999 V2000
   10.8383    5.8056    0.0000 O   0  0  0  0  0  0  0  0  0  0  0  0
   10.1239    4.5680    0.0000 O   0  0  0  0  0  0  0  0  0  0  0  0
    9.4093    4.1555    0.0000 O   0  0  0  0  0  0  0  0  0  0  0  0
    7.2659    4.5680    0.0000 O   0  0  0  0  0  0  0  0  0  0  0  0
    6.5514    1.6805    0.0000 O   0  0  0  0  0  0  0  0  0  0  0  0
    9.4093    1.6805    0.0000 O   0  0  0  0  0  0  0  0  0  0  0  0
    7.9804    0.8555    0.0000 O   0  0  0  0  0  0  0  0  0  0  0  0
    2.2845    5.4780    0.0000 O   0  0  0  0  0  0  0  0  0  0  0  0
   11.2509   10.0206    0.0000 O   0  0  0  0  0  0  0  0  0  0  0  0
    3.3009    6.1925    0.0000 O   0  0  0  0  0  0  0  0  0  0  0  0
   12.2673   10.7351    0.0000 O   0  0  0  0  0  0  0  0  0  0  0  0
    2.5864    7.4300    0.0000 O   0  0  0  0  0  0  0  0  0  0  0  0
   11.5528   11.9726    0.0000 O   0  0  0  0  0  0  0  0  0  0  0  0
    0.2219    7.6215    0.0000 O   0  0  0  0  0  0  0  0  0  0  0  0
    0.4430    4.5425    0.0000 O   0  0  0  0  0  0  0  0  0  0  0  0
    9.1883   12.1640    0.0000 O   0  0  0  0  0  0  0  0  0  0  0  0
    9.4093    9.0850    0.0000 O   0  0  0  0  0  0  0  0  0  0  0  0
    0.2219    6.1925    0.0000 O   0  0  0  0  0  0  0  0  0  0  0  0
    1.8720    4.5425    0.0000 O   0  0  0  0  0  0  0  0  0  0  0  0
    9.1883   10.7351    0.0000 O   0  0  0  0  0  0  0  0  0  0  0  0
   10.8383    9.0850    0.0000 O   0  0  0  0  0  0  0  0  0  0  0  0
    8.6949    5.3931    0.0000 N   0  0  0  0  0  0  0  0  0  0  0  0
   14.4108    2.9180    0.0000 N   0  0  0  0  0  0  0  0  0  0  0  0
   15.8398    5.3931    0.0000 N   0  0  0  0  0  0  0  0  0  0  0  0
    9.4093    5.8056    0.0000 C   0  0  1  0  0  0  0  0  0  0  0  0
    9.4093    6.6306    0.0000 C   0  0  0  0  0  0  0  0  0  0  0  0
    8.6949    7.0431    0.0000 C   0  0  0  0  0  0  0  0  0  0  0  0
    7.9804    6.6306    0.0000 C   0  0  0  0  0  0  0  0  0  0  0  0
    7.9804    5.8056    0.0000 C   0  0  0  0  0  0  0  0  0  0  0  0
   10.1239    5.3931    0.0000 C   0  0  0  0  0  0  0  0  0  0  0  0
   11.5528    5.3931    0.0000 C   0  0  0  0  0  0  0  0  0  0  0  0
    8.6949    4.5680    0.0000 C   0  0  0  0  0  0  0  0  0  0  0  0
   11.5528    4.5680    0.0000 C   0  0  0  0  0  0  0  0  0  0  0  0
   12.2673    5.8056    0.0000 C   0  0  0  0  0  0  0  0  0  0  0  0
   12.2673    4.1555    0.0000 C   0  0  0  0  0  0  0  0  0  0  0  0
   12.9818    5.3931    0.0000 C   0  0  0  0  0  0  0  0  0  0  0  0
    7.9804    4.1555    0.0000 C   0  0  0  0  0  0  0  0  0  0  0  0
   12.2673    3.3305    0.0000 C   0  0  0  0  0  0  0  0  0  0  0  0
   13.6963    5.8056    0.0000 C   0  0  0  0  0  0  0  0  0  0  0  0
    7.9804    3.3305    0.0000 C   0  0  0  0  0  0  0  0  0  0  0  0
   12.9818    2.9180    0.0000 C   0  0  0  0  0  0  0  0  0  0  0  0
   14.4108    5.3931    0.0000 C   0  0  0  0  0  0  0  0  0  0  0  0
    8.6949    2.9180    0.0000 C   0  0  0  0  0  0  0  0  0  0  0  0
    7.2659    2.9180    0.0000 C   0  0  0  0  0  0  0  0  0  0  0  0
   12.9818    2.0930    0.0000 C   0  0  0  0  0  0  0  0  0  0  0  0
   14.4108    4.5680    0.0000 C   0  0  0  0  0  0  0  0  0  0  0  0
   13.6963    3.3305    0.0000 C   0  0  0  0  0  0  0  0  0  0  0  0
   15.1252    5.8056    0.0000 C   0  0  0  0  0  0  0  0  0  0  0  0
    7.2659    2.0930    0.0000 C   0  0  0  0  0  0  0  0  0  0  0  0
    8.6949    2.0930    0.0000 C   0  0  0  0  0  0  0  0  0  0  0  0
    7.9804    1.6805    0.0000 C   0  0  0  0  0  0  0  0  0  0  0  0
   13.6963    1.6805    0.0000 C   0  0  0  0  0  0  0  0  0  0  0  0
   15.1252    4.1555    0.0000 C   0  0  0  0  0  0  0  0  0  0  0  0
   14.4108    2.0930    0.0000 C   0  0  0  0  0  0  0  0  0  0  0  0
   15.8398    4.5680    0.0000 C   0  0  0  0  0  0  0  0  0  0  0  0
    5.8369    2.0930    0.0000 C   0  0  0  0  0  0  0  0  0  0  0  0
   10.1239    2.0930    0.0000 C   0  0  0  0  0  0  0  0  0  0  0  0
    7.2659    0.4430    0.0000 C   0  0  0  0  0  0  0  0  0  0  0  0
    1.8720    6.1925    0.0000 C   0  0  0  0  0  0  0  0  0  0  0  0
   10.8383   10.7351    0.0000 C   0  0  0  0  0  0  0  0  0  0  0  0
    1.4595    6.9071    0.0000 C   0  0  0  0  0  0  0  0  0  0  0  0
    1.1575    5.7800    0.0000 C   0  0  0  0  0  0  0  0  0  0  0  0
   10.4258   11.4495    0.0000 C   0  0  0  0  0  0  0  0  0  0  0  0
   10.1239   10.3225    0.0000 C   0  0  0  0  0  0  0  0  0  0  0  0
    2.5864    6.6050    0.0000 C   0  0  0  0  0  0  0  0  0  0  0  0
   11.5528   11.1476    0.0000 C   0  0  0  0  0  0  0  0  0  0  0  0
    0.6344    6.9071    0.0000 C   0  0  0  0  0  0  0  0  0  0  0  0
    1.1575    4.9550    0.0000 C   0  0  0  0  0  0  0  0  0  0  0  0
    9.6008   11.4495    0.0000 C   0  0  0  0  0  0  0  0  0  0  0  0
   10.1239    9.4975    0.0000 C   0  0  0  0  0  0  0  0  0  0  0  0
  1 30  1  0  0  0  0
  1 31  1  0  0  0  0
  2 30  2  0  0  0  0
  3 32  2  0  0  0  0
  4 37  2  0  0  0  0
  5 49  1  0  0  0  0
  5 56  1  0  0  0  0
  6 50  1  0  0  0  0
  6 57  1  0  0  0  0
  7 51  1  0  0  0  0
  7 58  1  0  0  0  0
  8 59  1  0  0  0  0
  9 60  1  0  0  0  0
 10 65  1  0  0  0  0
 11 66  1  0  0  0  0
 12 65  2  0  0  0  0
 13 66  2  0  0  0  0
 14 67  1  0  0  0  0
 15 68  1  0  0  0  0
 16 69  1  0  0  0  0
 17 70  1  0  0  0  0
 18 67  2  0  0  0  0
 19 68  2  0  0  0  0
 20 69  2  0  0  0  0
 21 70  2  0  0  0  0
 22 25  1  0  0  0  0
 22 29  1  0  0  0  0
 22 32  1  0  0  0  0
 23 47  1  0  0  0  0
 23 54  2  0  0  0  0
 24 48  1  0  0  0  0
 24 55  2  0  0  0  0
 25 26  1  0  0  0  0
 25 30  1  1  0  0  0
 26 27  1  0  0  0  0
 27 28  1  0  0  0  0
 28 29  1  0  0  0  0
 31 33  1  0  0  0  0
 31 34  1  0  0  0  0
 32 37  1  0  0  0  0
 33 35  1  0  0  0  0
 34 36  1  0  0  0  0
 35 38  1  0  0  0  0
 36 39  1  0  0  0  0
 37 40  1  0  0  0  0
 38 41  1  0  0  0  0
 39 42  1  0  0  0  0
 40 43  2  0  0  0  0
 40 44  1  0  0  0  0
 41 45  1  0  0  0  0
 41 47  2  0  0  0  0
 42 46  1  0  0  0  0
 42 48  2  0  0  0  0
 43 50  1  0  0  0  0
 44 49  2  0  0  0  0
 45 52  2  0  0  0  0
 46 53  2  0  0  0  0
 49 51  1  0  0  0  0
 50 51  2  0  0  0  0
 52 54  1  0  0  0  0
 53 55  1  0  0  0  0
 59 61  1  0  0  0  0
 59 62  1  0  0  0  0
 59 65  1  0  0  0  0
 60 63  1  0  0  0  0
 60 64  1  0  0  0  0
 60 66  1  0  0  0  0
 61 67  1  0  0  0  0
 62 68  1  0  0  0  0
 63 69  1  0  0  0  0
 64 70  1  0  0  0  0
M  END
> <DRUGBANK_ID>
DB04851

> <DRUG_GROUPS>
investigational

> <GENERIC_NAME>
Biricodar dicitrate

> <SYNONYMS>


> <BRANDS>


> <CHEMICAL_FORMULA>
C46H57N3O21

> <MOLECULAR_WEIGHT>
987.9523

> <EXACT_MASS>
987.348455901

> <IUPAC_NAME>
bis(2-hydroxypropane-1,2,3-tricarboxylic acid) 1,7-bis(pyridin-3-yl)heptan-4-yl (2S)-1-[2-oxo-2-(3,4,5-trimethoxyphenyl)acetyl]piperidine-2-carboxylate

> <IUPAC_TRADITIONAL_NAME>
biricodar; bis(citric acid)

> <INCHI_IDENTIFIER>
InChI=1S/C34H41N3O7.2C6H8O7/c1-41-29-20-26(21-30(42-2)32(29)43-3)31(38)33(39)37-19-5-4-16-28(37)34(40)44-27(14-6-10-24-12-8-17-35-22-24)15-7-11-25-13-9-18-36-23-25;2*7-3(8)1-6(13,5(11)12)2-4(9)10/h8-9,12-13,17-18,20-23,27-28H,4-7,10-11,14-16,19H2,1-3H3;2*13H,1-2H2,(H,7,8)(H,9,10)(H,11,12)/t28-;;/m0../s1

> <INCHI_KEY>
InChIKey=VDMKJSJJXQDICL-ZXVJYWQYSA-N

> <SMILES>
OC(=O)CC(O)(CC(O)=O)C(O)=O.OC(=O)CC(O)(CC(O)=O)C(O)=O.COC1=CC(=CC(OC)=C1OC)C(=O)C(=O)N1CCCC[C@H]1C(=O)OC(CCCC1=CN=CC=C1)CCCC1=CN=CC=C1

> <JCHEM_ACCEPTOR_COUNT>
8

> <JCHEM_DONOR_COUNT>
0

> <JCHEM_BASIC_PKA>
5.86

> <JCHEM_PHYSIOLOGICAL_CHARGE>
0

> <JCHEM_LOGP>
4.77

> <JCHEM_POLARIZABILITY>
64.13

> <JCHEM_POLAR_SURFACE_AREA>
117.15

> <JCHEM_REFRACTIVITY>
164.5

> <JCHEM_ROTATABLE_BOND_COUNT>
26 __ 

$$$$
