
  Mrv0541 02231217372D          

  3  2  0  0  0  0            999 V2000
    1.2375   -0.7145    0.0000 C   0  0  0  0  0  0  0  0  0  0  0  0
    1.9520   -1.1270    0.0000 N   0  0  0  0  0  0  0  0  0  0  0  0
    2.6664   -0.7145    0.0000 N   0  0  0  0  0  0  0  0  0  0  0  0
  1  2  1  0  0  0  0
  2  3  2  0  0  0  0
M  END
> <DRUGBANK_ID>
DB04361

> <DRUG_GROUPS>
experimental

> <GENERIC_NAME>
Methylhydrazine

> <CHEMICAL_FORMULA>
CH4N2

> <MOLECULAR_WEIGHT>
44.0559

> <EXACT_MASS>
44.037448138

> <IUPAC_NAME>
methyldiazene

> <IUPAC_TRADITIONAL_NAME>
methylhydrazine

> <INCHI_IDENTIFIER>
InChI=1S/CH4N2/c1-3-2/h2H,1H3

> <INCHI_KEY>
InChIKey=JYXPWUYLZPYOAH-UHFFFAOYSA-N

> <SMILES>
CN=N

> <JCHEM_ACCEPTOR_COUNT>
2

> <JCHEM_DONOR_COUNT>
1

> <JCHEM_BASIC_PKA>
1.08

> <JCHEM_PHYSIOLOGICAL_CHARGE>
0

> <ALOGPS_LOGP>
-0.63

> <JCHEM_LOGP>
-0.028

> <ALOGPS_LOGS>
-1.1

> <JCHEM_POLARIZABILITY>
4.42

> <JCHEM_POLAR_SURFACE_AREA>
36.21

> <JCHEM_REFRACTIVITY>
10.96

> <JCHEM_ROTATABLE_BOND_COUNT>
0

> <ALOGPS_SOLUBILITY>
3.97e+00 g/l __ 

$$$$
