
  Mrv0541 02231217452D          

 22 21  0  0  0  0            999 V2000
   -8.0506    6.0770    0.0000 C   0  0  0  0  0  0  0  0  0  0  0  0
   -7.3362    5.6645    0.0000 C   0  0  0  0  0  0  0  0  0  0  0  0
   -7.3362    4.8395    0.0000 C   0  0  0  0  0  0  0  0  0  0  0  0
   -6.6217    4.4270    0.0000 C   0  0  0  0  0  0  0  0  0  0  0  0
   -6.6217    3.6020    0.0000 C   0  0  0  0  0  0  0  0  0  0  0  0
   -5.9072    3.1895    0.0000 C   0  0  0  0  0  0  0  0  0  0  0  0
   -5.9072    2.3645    0.0000 C   0  0  0  0  0  0  0  0  0  0  0  0
   -5.1927    1.9520    0.0000 C   0  0  0  0  0  0  0  0  0  0  0  0
   -4.4783    2.3645    0.0000 C   0  0  0  0  0  0  0  0  0  0  0  0
   -3.7638    1.9520    0.0000 C   0  0  0  0  0  0  0  0  0  0  0  0
   -3.0493    2.3645    0.0000 C   0  0  0  0  0  0  0  0  0  0  0  0
   -2.3349    1.9520    0.0000 C   0  0  0  0  0  0  0  0  0  0  0  0
   -2.3349    1.1270    0.0000 C   0  0  0  0  0  0  0  0  0  0  0  0
   -1.6204    0.7145    0.0000 C   0  0  0  0  0  0  0  0  0  0  0  0
   -0.9059    1.1270    0.0000 C   0  0  0  0  0  0  0  0  0  0  0  0
   -0.1914    0.7145    0.0000 C   0  0  0  0  0  0  0  0  0  0  0  0
    0.5230    1.1270    0.0000 C   0  0  0  0  0  0  0  0  0  0  0  0
    1.2375    0.7145    0.0000 C   0  0  0  0  0  0  0  0  0  0  0  0
    1.9520    1.1270    0.0000 C   0  0  0  0  0  0  0  0  0  0  0  0
    2.6664    0.7145    0.0000 C   0  0  0  0  0  0  0  0  0  0  0  0
    3.3809    1.1270    0.0000 O   0  0  0  0  0  0  0  0  0  0  0  0
    2.6664   -0.1105    0.0000 O   0  0  0  0  0  0  0  0  0  0  0  0
  1  2  1  0  0  0  0
  2  3  1  0  0  0  0
  3  4  1  0  0  0  0
  4  5  1  0  0  0  0
  5  6  1  0  0  0  0
  6  7  2  0  0  0  0
  7  8  1  0  0  0  0
  8  9  1  0  0  0  0
  9 10  2  0  0  0  0
 10 11  1  0  0  0  0
 11 12  1  0  0  0  0
 12 13  2  0  0  0  0
 13 14  1  0  0  0  0
 14 15  1  0  0  0  0
 15 16  2  0  0  0  0
 16 17  1  0  0  0  0
 17 18  1  0  0  0  0
 18 19  1  0  0  0  0
 19 20  1  0  0  0  0
 20 21  1  0  0  0  0
 20 22  2  0  0  0  0
M  END
> <DRUGBANK_ID>
DB04557

> <DRUG_GROUPS>
experimental

> <GENERIC_NAME>
Arachidonic Acid

> <CHEMICAL_FORMULA>
C20H32O2

> <MOLECULAR_WEIGHT>
304.4669

> <EXACT_MASS>
304.240230268

> <IUPAC_NAME>
(5E,8E,11E,14E)-icosa-5,8,11,14-tetraenoic acid

> <IUPAC_TRADITIONAL_NAME>
arachidonic acid

> <INCHI_IDENTIFIER>
InChI=1S/C20H32O2/c1-2-3-4-5-6-7-8-9-10-11-12-13-14-15-16-17-18-19-20(21)22/h6-7,9-10,12-13,15-16H,2-5,8,11,14,17-19H2,1H3,(H,21,22)/b7-6+,10-9+,13-12+,16-15+

> <INCHI_KEY>
InChIKey=YZXBAPSDXZZRGB-CGRWFSSPSA-N

> <SMILES>
CCCCC\C=C\C\C=C\C\C=C\C\C=C\CCCC(O)=O

> <JCHEM_ACCEPTOR_COUNT>
2

> <JCHEM_DONOR_COUNT>
1

> <JCHEM_ACIDIC_PKA>
4.82

> <JCHEM_PHYSIOLOGICAL_CHARGE>
-1

> <ALOGPS_LOGP>
6.8

> <JCHEM_LOGP>
6.59

> <ALOGPS_LOGS>
-6.3

> <JCHEM_POLARIZABILITY>
37.37

> <JCHEM_POLAR_SURFACE_AREA>
37.3

> <JCHEM_REFRACTIVITY>
99.95

> <JCHEM_ROTATABLE_BOND_COUNT>
14

> <ALOGPS_SOLUBILITY>
1.51e-04 g/l __ 

$$$$
