
  Mrv0541 02231217462D          

 26 25  0  0  1  0            999 V2000
    6.7105    4.6993    0.0000 C   0  0  0  0  0  0  0  0  0  0  0  0
    7.4250    4.2868    0.0000 C   0  0  0  0  0  0  0  0  0  0  0  0
    8.1395    4.6993    0.0000 O   0  0  0  0  0  0  0  0  0  0  0  0
    8.8539    4.2868    0.0000 C   0  0  0  0  0  0  0  0  0  0  0  0
    8.8539    3.4618    0.0000 O   0  0  0  0  0  0  0  0  0  0  0  0
    9.5684    4.6993    0.0000 C   0  0  1  0  0  0  0  0  0  0  0  0
    9.5684    5.5243    0.0000 O   0  0  0  0  0  0  0  0  0  0  0  0
   10.2829    4.2868    0.0000 C   0  0  0  0  0  0  0  0  0  0  0  0
   10.9974    4.6993    0.0000 C   0  0  0  0  0  0  0  0  0  0  0  0
   10.9974    5.5243    0.0000 O   0  0  0  0  0  0  0  0  0  0  0  0
   11.7118    4.2868    0.0000 N   0  0  0  0  0  0  0  0  0  0  0  0
   12.4263    4.6993    0.0000 C   0  0  1  0  0  0  0  0  0  0  0  0
   12.4263    5.5243    0.0000 C   0  0  1  0  0  0  0  0  0  0  0  0
   13.1408    5.9368    0.0000 C   0  0  0  0  0  0  0  0  0  0  0  0
   11.7118    5.9368    0.0000 O   0  0  0  0  0  0  0  0  0  0  0  0
   13.1408    4.2868    0.0000 C   0  0  0  0  0  0  0  0  0  0  0  0
   13.1408    3.4618    0.0000 O   0  0  0  0  0  0  0  0  0  0  0  0
   13.8552    4.6993    0.0000 N   0  0  0  0  0  0  0  0  0  0  0  0
   14.5697    4.2868    0.0000 C   0  0  1  0  0  0  0  0  0  0  0  0
   15.2842    4.6993    0.0000 C   0  0  1  0  0  0  0  0  0  0  0  0
   15.2842    5.5243    0.0000 C   0  0  0  0  0  0  0  0  0  0  0  0
   15.9987    4.2868    0.0000 C   0  0  0  0  0  0  0  0  0  0  0  0
   16.7131    4.6993    0.0000 C   0  0  0  0  0  0  0  0  0  0  0  0
   14.5697    3.4618    0.0000 C   0  0  0  0  0  0  0  0  0  0  0  0
   15.2842    3.0493    0.0000 O   0  0  0  0  0  0  0  0  0  0  0  0
   13.8552    3.0493    0.0000 O   0  0  0  0  0  0  0  0  0  0  0  0
  1  2  1  0  0  0  0
  2  3  1  0  0  0  0
  3  4  1  0  0  0  0
  4  5  2  0  0  0  0
  4  6  1  0  0  0  0
  6  7  1  1  0  0  0
  6  8  1  0  0  0  0
  8  9  1  0  0  0  0
  9 10  2  0  0  0  0
  9 11  1  0  0  0  0
 12 11  1  1  0  0  0
 12 13  1  0  0  0  0
 13 14  1  0  0  0  0
 13 15  1  6  0  0  0
 12 16  1  0  0  0  0
 16 17  2  0  0  0  0
 16 18  1  0  0  0  0
 19 18  1  1  0  0  0
 19 20  1  0  0  0  0
 20 21  1  1  0  0  0
 20 22  1  0  0  0  0
 22 23  1  0  0  0  0
 19 24  1  0  0  0  0
 24 25  1  0  0  0  0
 24 26  2  0  0  0  0
M  END
> <DRUGBANK_ID>
DB04579

> <DRUG_GROUPS>
experimental

> <GENERIC_NAME>
N-{[(2S,3S)-3-(ETHOXYCARBONYL)OXIRAN-2-YL]CARBONYL}-

> <CHEMICAL_FORMULA>
C16H28N2O8

> <MOLECULAR_WEIGHT>
376.4021

> <EXACT_MASS>
376.184565882

> <IUPAC_NAME>
(2S,3S)-2-[(2S,3R)-2-[(3S)-4-ethoxy-3-hydroxy-4-oxobutanamido]-3-hydroxybutanamido]-3-methylpentanoic acid

> <IUPAC_TRADITIONAL_NAME>
(2S,3S)-2-[(2S,3R)-2-[(3S)-4-ethoxy-3-hydroxy-4-oxobutanamido]-3-hydroxybutanamido]-3-methylpentanoic acid

> <INCHI_IDENTIFIER>
InChI=1S/C16H28N2O8/c1-5-8(3)12(15(23)24)18-14(22)13(9(4)19)17-11(21)7-10(20)16(25)26-6-2/h8-10,12-13,19-20H,5-7H2,1-4H3,(H,17,21)(H,18,22)(H,23,24)/t8-,9+,10-,12-,13-/m0/s1

> <INCHI_KEY>
InChIKey=TUAMLRIDHTYTCM-WKLONVCASA-N

> <SMILES>
CCOC(=O)[C@@H](O)CC(=O)N[C@@H]([C@@H](C)O)C(=O)N[C@@H]([C@@H](C)CC)C(O)=O

> <JCHEM_ACCEPTOR_COUNT>
7

> <JCHEM_DONOR_COUNT>
5

> <JCHEM_ACIDIC_PKA>
3.81

> <JCHEM_BASIC_PKA>
-2.7

> <JCHEM_PHYSIOLOGICAL_CHARGE>
-1

> <ALOGPS_LOGP>
-0.34

> <JCHEM_LOGP>
-0.98

> <ALOGPS_LOGS>
-1.5

> <JCHEM_POLARIZABILITY>
37.85

> <JCHEM_POLAR_SURFACE_AREA>
162.26

> <JCHEM_REFRACTIVITY>
88.55

> <JCHEM_ROTATABLE_BOND_COUNT>
12

> <ALOGPS_SOLUBILITY>
1.17e+01 g/l __ 

$$$$
