
  Mrv0541 02231217272D          

 32 34  0  0  1  0            999 V2000
   -2.7900    3.9253    0.0000 N   0  0  0  0  0  0  0  0  0  0  0  0
   -3.5970    3.7538    0.0000 C   0  0  0  0  0  0  0  0  0  0  0  0
   -3.8519    2.9692    0.0000 N   0  0  0  0  0  0  0  0  0  0  0  0
   -4.6589    2.7976    0.0000 C   0  0  0  0  0  0  0  0  0  0  0  0
   -5.2109    3.4107    0.0000 C   0  0  0  0  0  0  0  0  0  0  0  0
   -5.9646    3.0752    0.0000 N   0  0  0  0  0  0  0  0  0  0  0  0
   -5.8783    2.2547    0.0000 C   0  0  0  0  0  0  0  0  0  0  0  0
   -5.0714    2.0832    0.0000 N   0  0  0  0  0  0  0  0  0  0  0  0
   -4.7358    1.3295    0.0000 C   0  0  2  0  0  0  0  0  0  0  0  0
   -3.9288    1.1580    0.0000 O   0  0  0  0  0  0  0  0  0  0  0  0
   -3.8426    0.3375    0.0000 C   0  0  1  0  0  0  0  0  0  0  0  0
   -3.1281   -0.0750    0.0000 C   0  0  0  0  0  0  0  0  0  0  0  0
   -2.4137    0.3375    0.0000 O   0  0  0  0  0  0  0  0  0  0  0  0
   -1.6992   -0.0750    0.0000 P   0  0  2  0  0  0  0  0  0  0  0  0
   -2.1117   -0.7895    0.0000 O   0  0  0  0  0  0  0  0  0  0  0  0
   -1.2867    0.6394    0.0000 O   0  0  0  0  0  0  0  0  0  0  0  0
   -0.9847   -0.4875    0.0000 O   0  0  0  0  0  0  0  0  0  0  0  0
   -0.2703   -0.0750    0.0000 P   0  0  0  0  0  0  0  0  0  0  0  0
    0.4442    0.3375    0.0000 O   0  0  0  0  0  0  0  0  0  0  0  0
    0.1422   -0.7895    0.0000 O   0  0  0  0  0  0  0  0  0  0  0  0
   -0.6828    0.6394    0.0000 O   0  0  0  0  0  0  0  0  0  0  0  0
   -4.5963    0.0019    0.0000 C   0  0  2  0  0  0  0  0  0  0  0  0
   -4.7678   -0.8051    0.0000 O   0  0  0  0  0  0  0  0  0  0  0  0
   -5.5524   -1.0600    0.0000 P   0  0  0  0  0  0  0  0  0  0  0  0
   -5.8074   -0.2754    0.0000 O   0  0  0  0  0  0  0  0  0  0  0  0
   -5.2975   -1.8446    0.0000 O   0  0  0  0  0  0  0  0  0  0  0  0
   -6.3371   -1.3149    0.0000 O   0  0  0  0  0  0  0  0  0  0  0  0
   -5.1483    0.6150    0.0000 C   0  0  1  0  0  0  0  0  0  0  0  0
   -5.9688    0.5288    0.0000 O   0  0  0  0  0  0  0  0  0  0  0  0
   -4.9560    4.1953    0.0000 C   0  0  0  0  0  0  0  0  0  0  0  0
   -5.5080    4.8084    0.0000 O   0  0  0  0  0  0  0  0  0  0  0  0
   -4.1490    4.3669    0.0000 N   0  0  0  0  0  0  0  0  0  0  0  0
  1  2  1  0  0  0  0
  2  3  2  0  0  0  0
  3  4  1  0  0  0  0
  4  5  2  0  0  0  0
  5  6  1  0  0  0  0
  6  7  2  0  0  0  0
  7  8  1  0  0  0  0
  4  8  1  0  0  0  0
  9  8  1  6  0  0  0
  9 10  1  0  0  0  0
 10 11  1  0  0  0  0
 11 12  1  1  0  0  0
 12 13  1  0  0  0  0
 14 13  1  6  0  0  0
 14 15  1  1  0  0  0
 14 16  2  0  0  0  0
 14 17  1  0  0  0  0
 17 18  1  0  0  0  0
 18 19  1  0  0  0  0
 18 20  1  0  0  0  0
 18 21  2  0  0  0  0
 11 22  1  0  0  0  0
 22 23  1  6  0  0  0
 23 24  1  0  0  0  0
 24 25  1  0  0  0  0
 24 26  1  0  0  0  0
 24 27  2  0  0  0  0
 22 28  1  0  0  0  0
  9 28  1  0  0  0  0
 28 29  1  1  0  0  0
  5 30  1  0  0  0  0
 30 31  2  0  0  0  0
 30 32  1  0  0  0  0
  2 32  1  0  0  0  0
M  END
> <DRUGBANK_ID>
DB04121

> <DRUG_GROUPS>
experimental

> <GENERIC_NAME>
Guanosine-3'-Monophosphate-5'-Diphosphate

> <CHEMICAL_FORMULA>
C10H16N5O14P3

> <MOLECULAR_WEIGHT>
523.1804

> <EXACT_MASS>
522.990659781

> <IUPAC_NAME>
[({[(2S,3R,4R,5R)-5-(2-amino-6-oxo-6,9-dihydro-1H-purin-9-yl)-4-hydroxy-3-(phosphonooxy)oxolan-2-yl]methoxy}(hydroxy)phosphoryl)oxy]phosphonic acid

> <IUPAC_TRADITIONAL_NAME>
{[(2S,3R,4R,5R)-5-(2-amino-6-oxo-1H-purin-9-yl)-4-hydroxy-3-(phosphonooxy)oxolan-2-yl]methoxy(hydroxy)phosphoryl}oxyphosphonic acid

> <INCHI_IDENTIFIER>
InChI=1S/C10H16N5O14P3/c11-10-13-7-4(8(17)14-10)12-2-15(7)9-5(16)6(28-30(18,19)20)3(27-9)1-26-32(24,25)29-31(21,22)23/h2-3,5-6,9,16H,1H2,(H,24,25)(H2,18,19,20)(H2,21,22,23)(H3,11,13,14,17)/t3-,5+,6-,9+/m0/s1

> <INCHI_KEY>
InChIKey=HEYSFDAMRDTCJM-FULWYAMNSA-N

> <SMILES>
NC1=NC2=C(N=CN2[C@@H]2O[C@@H](CO[P@](O)(=O)OP(O)(O)=O)[C@H](OP(O)(O)=O)[C@H]2O)C(=O)N1

> <JCHEM_ACCEPTOR_COUNT>
14

> <JCHEM_DONOR_COUNT>
8

> <JCHEM_ACIDIC_PKA>
0.7

> <JCHEM_BASIC_PKA>
1.36

> <JCHEM_PHYSIOLOGICAL_CHARGE>
-4

> <ALOGPS_LOGP>
-0.88

> <JCHEM_LOGP>
-3.4

> <ALOGPS_LOGS>
-1.8

> <JCHEM_POLARIZABILITY>
39.84

> <JCHEM_POLAR_SURFACE_AREA>
294.81

> <JCHEM_REFRACTIVITY>
97.24

> <JCHEM_ROTATABLE_BOND_COUNT>
8

> <ALOGPS_SOLUBILITY>
9.10e+00 g/l __ 

$$$$
