
  Mrv0541 02231217282D          

 27 27  0  0  0  0            999 V2000
   -1.4289    2.4750    0.0000 O    0  0  0  0  0  0  0  0  0  0  0  0
   -0.7145    2.8875    0.0000 N    0  0  0  0  0  0  0  0  0  0  0  0
   -0.7145    3.7125    0.0000 O    0  0  0  0  0  0  0  0  0  0  0  0
    0.0000    2.4750    0.0000 C    0  0  0  0  0  0  0  0  0  0  0  0
    0.7145    2.8875    0.0000 C    0  0  0  0  0  0  0  0  0  0  0  0
    1.4289    2.4750    0.0000 C    0  0  0  0  0  0  0  0  0  0  0  0
    1.4289    1.6500    0.0000 C    0  0  0  0  0  0  0  0  0  0  0  0
    0.7145    1.2375    0.0000 C    0  0  0  0  0  0  0  0  0  0  0  0
    0.0000    1.6500    0.0000 C    0  0  0  0  0  0  0  0  0  0  0  0
   -0.7145    1.2375    0.0000 N    0  0  0  0  0  0  0  0  0  0  0  0
   -1.4289    1.6500    0.0000 C    0  0  0  0  0  0  0  0  0  0  0  0
   -2.1434    1.2375    0.0000 C    0  0  0  0  0  0  0  0  0  0  0  0
   -2.8579    1.6500    0.0000 Br   0  0  0  0  0  0  0  0  0  0  0  0
   -0.7145    0.4125    0.0000 C    0  0  0  0  0  0  0  0  0  0  0  0
    0.0000    0.0000    0.0000 C    0  0  0  0  0  0  0  0  0  0  0  0
    0.0000   -0.8250    0.0000 Br   0  0  0  0  0  0  0  0  0  0  0  0
    2.1434    1.2375    0.0000 C    0  0  0  0  0  0  0  0  0  0  0  0
    2.1434    0.4125    0.0000 O    0  0  0  0  0  0  0  0  0  0  0  0
    2.8579    1.6500    0.0000 N    0  0  0  0  0  0  0  0  0  0  0  0
    3.5724    1.2375    0.0000 C    0  0  0  0  0  0  0  0  0  0  0  0
    4.2868    1.6500    0.0000 C    0  0  0  0  0  0  0  0  0  0  0  0
    4.2868    2.4750    0.0000 O    0  0  0  0  0  0  0  0  0  0  0  0
    5.0013    1.2375    0.0000 C    0  0  0  0  0  0  0  0  0  0  0  0
    5.7158    1.6500    0.0000 O    0  0  0  0  0  0  0  0  0  0  0  0
    2.1434    2.8875    0.0000 N    0  0  0  0  0  0  0  0  0  0  0  0
    2.8579    2.4750    0.0000 O    0  0  0  0  0  0  0  0  0  0  0  0
    2.1434    3.7125    0.0000 O    0  0  0  0  0  0  0  0  0  0  0  0
  1  2  1  0  0  0  0
  2  3  2  0  0  0  0
  2  4  1  0  0  0  0
  4  5  2  0  0  0  0
  5  6  1  0  0  0  0
  6  7  2  0  0  0  0
  7  8  1  0  0  0  0
  8  9  2  0  0  0  0
  4  9  1  0  0  0  0
  9 10  1  0  0  0  0
 10 11  1  0  0  0  0
 11 12  1  0  0  0  0
 12 13  1  0  0  0  0
 10 14  1  0  0  0  0
 14 15  1  0  0  0  0
 15 16  1  0  0  0  0
  7 17  1  0  0  0  0
 17 18  2  0  0  0  0
 17 19  1  0  0  0  0
 19 20  1  0  0  0  0
 20 21  1  0  0  0  0
 21 22  2  0  0  0  0
 21 23  1  0  0  0  0
 23 24  2  0  0  0  0
  6 25  1  0  0  0  0
 25 26  1  0  0  0  0
 25 27  2  0  0  0  0
M  END
> <DRUGBANK_ID>
DB04138

> <DRUG_GROUPS>
experimental

> <GENERIC_NAME>
2,4-Dinitro,5-[Bis(2-Bromoethyl)Amino]-N-(2',3'-Dioxopropyl)Benzamide

> <CHEMICAL_FORMULA>
C14H16Br2N4O7

> <MOLECULAR_WEIGHT>
512.107

> <EXACT_MASS>
509.93857418

> <INCHI_IDENTIFIER>
InChI=1S/C14H16Br2N4O7/c15-1-3-18(4-2-16)12-5-10(14(23)17-7-9(22)8-21)11(19(24)25)6-13(12)20(26)27/h5-6,8H,1-4,7H2,(H,17,23)(H,24,25)(H,26,27)

> <INCHI_KEY>
InChIKey=BDKRZLSOYPYTKG-UHFFFAOYSA-N

> <SMILES>
O[N](=O)C1=CC(=C(C=C1N(CCBr)CCBr)C(=O)NCC(=O)C=O)[N](O)=O

> <JCHEM_ACCEPTOR_COUNT>
0

> <JCHEM_DONOR_COUNT>
0

> <JCHEM_ACIDIC_PKA>
13.48

> <JCHEM_BASIC_PKA>
-1.4

> <JCHEM_PHYSIOLOGICAL_CHARGE>
0

> <ALOGPS_LOGP>
2.91

> <ALOGPS_LOGS>
-4.3

> <JCHEM_POLARIZABILITY>
39.61

> <JCHEM_POLAR_SURFACE_AREA>
179.5

> <JCHEM_REFRACTIVITY>
104.49

> <JCHEM_ROTATABLE_BOND_COUNT>
11

> <ALOGPS_SOLUBILITY>
2.67e-02 g/l __ 

$$$$
