
  Mrv0541 02231217282D          

 39 43  0  0  1  0            999 V2000
    0.0000    2.4750    0.0000 C    0  0  0  0  0  0  0  0  0  0  0  0
    0.7145    2.0625    0.0000 O    0  0  0  0  0  0  0  0  0  0  0  0
    0.7145    1.2375    0.0000 C    0  0  0  0  0  0  0  0  0  0  0  0
    0.0000    0.8250    0.0000 C    0  0  0  0  0  0  0  0  0  0  0  0
    0.0000    0.0000    0.0000 C    0  0  0  0  0  0  0  0  0  0  0  0
    0.7145   -0.4125    0.0000 C    0  0  0  0  0  0  0  0  0  0  0  0
    1.4289    0.0000    0.0000 C    0  0  0  0  0  0  0  0  0  0  0  0
    2.1434   -0.4125    0.0000 O    0  0  0  0  0  0  0  0  0  0  0  0
    2.8579    0.0000    0.0000 C    0  0  0  0  0  0  0  0  0  0  0  0
    3.5724   -0.4125    0.0000 C    0  0  0  0  0  0  0  0  0  0  0  0
    2.8579    0.8250    0.0000 C    0  0  0  0  0  0  0  0  0  0  0  0
    1.4289    0.8250    0.0000 C    0  0  0  0  0  0  0  0  0  0  0  0
    0.7145   -1.2375    0.0000 C    0  0  0  0  0  0  0  0  0  0  0  0
    1.3819   -1.7224    0.0000 N    0  0  0  0  0  0  0  0  0  0  0  0
    1.1270   -2.5070    0.0000 C    0  0  1  0  0  0  0  0  0  0  0  0
    0.3020   -2.5070    0.0000 C    0  0  2  0  0  0  0  0  0  0  0  0
    0.0470   -1.7224    0.0000 N    0  0  0  0  0  0  0  0  0  0  0  0
   -0.7376   -1.4675    0.0000 C    0  0  0  0  0  0  0  0  0  0  0  0
   -0.9091   -0.6605    0.0000 O    0  0  0  0  0  0  0  0  0  0  0  0
   -1.3507   -2.0195    0.0000 N    0  0  0  0  0  0  0  0  0  0  0  0
   -1.1792   -2.8265    0.0000 C    0  0  0  0  0  0  0  0  0  0  0  0
   -1.7923   -3.3785    0.0000 C    0  0  0  0  0  0  0  0  0  0  0  0
   -2.5769   -3.1236    0.0000 N    0  0  0  0  0  0  0  0  0  0  0  0
   -2.7484   -2.3166    0.0000 C    0  0  0  0  0  0  0  0  0  0  0  0
   -2.1353   -1.7646    0.0000 C    0  0  0  0  0  0  0  0  0  0  0  0
   -0.1830   -3.1745    0.0000 C    0  0  0  0  0  0  0  0  0  0  0  0
    0.1526   -3.9282    0.0000 C    0  0  0  0  0  0  0  0  0  0  0  0
   -0.3323   -4.5956    0.0000 C    0  0  0  0  0  0  0  0  0  0  0  0
   -1.1528   -4.5094    0.0000 C    0  0  0  0  0  0  0  0  0  0  0  0
   -1.6377   -5.1768    0.0000 Cl   0  0  0  0  0  0  0  0  0  0  0  0
   -1.4884   -3.7557    0.0000 C    0  0  0  0  0  0  0  0  0  0  0  0
   -1.0034   -3.0882    0.0000 C    0  0  0  0  0  0  0  0  0  0  0  0
    1.6119   -3.1745    0.0000 C    0  0  0  0  0  0  0  0  0  0  0  0
    2.4324   -3.0882    0.0000 C    0  0  0  0  0  0  0  0  0  0  0  0
    2.9173   -3.7557    0.0000 C    0  0  0  0  0  0  0  0  0  0  0  0
    2.5817   -4.5094    0.0000 C    0  0  0  0  0  0  0  0  0  0  0  0
    3.0667   -5.1768    0.0000 Cl   0  0  0  0  0  0  0  0  0  0  0  0
    1.7613   -4.5956    0.0000 C    0  0  0  0  0  0  0  0  0  0  0  0
    1.2763   -3.9282    0.0000 C    0  0  0  0  0  0  0  0  0  0  0  0
  1  2  1  0  0  0  0
  2  3  1  0  0  0  0
  3  4  2  0  0  0  0
  4  5  1  0  0  0  0
  5  6  2  0  0  0  0
  6  7  1  0  0  0  0
  7  8  1  0  0  0  0
  8  9  1  0  0  0  0
  9 10  1  0  0  0  0
  9 11  1  0  0  0  0
  7 12  2  0  0  0  0
  3 12  1  0  0  0  0
  6 13  1  0  0  0  0
 13 14  2  0  0  0  0
 14 15  1  0  0  0  0
 15 16  1  0  0  0  0
 16 17  1  0  0  0  0
 13 17  1  0  0  0  0
 17 18  1  0  0  0  0
 18 19  2  0  0  0  0
 18 20  1  0  0  0  0
 20 21  1  0  0  0  0
 21 22  1  0  0  0  0
 22 23  1  0  0  0  0
 23 24  1  0  0  0  0
 24 25  1  0  0  0  0
 20 25  1  0  0  0  0
 16 26  1  1  0  0  0
 26 27  2  0  0  0  0
 27 28  1  0  0  0  0
 28 29  2  0  0  0  0
 29 30  1  0  0  0  0
 29 31  1  0  0  0  0
 31 32  2  0  0  0  0
 26 32  1  0  0  0  0
 15 33  1  6  0  0  0
 33 34  2  0  0  0  0
 34 35  1  0  0  0  0
 35 36  2  0  0  0  0
 36 37  1  0  0  0  0
 36 38  1  0  0  0  0
 38 39  2  0  0  0  0
 33 39  1  0  0  0  0
M  END
> <DRUGBANK_ID>
DB04144

> <DRUG_GROUPS>
experimental

> <GENERIC_NAME>
Cis-[4,5-Bis-(4-Chlorophenyl)-2-(2-Isopropoxy-4-Methoxyphenyl)-4,5-Dihyd Roimidazol-1-Yl]-Piperazin-1-Yl-Methanone

> <CHEMICAL_FORMULA>
C30H32Cl2N4O3

> <MOLECULAR_WEIGHT>
567.506

> <EXACT_MASS>
566.185146324

> <IUPAC_NAME>
1-{[(4R,5R)-4,5-bis(4-chlorophenyl)-2-[4-methoxy-2-(propan-2-yloxy)phenyl]-4,5-dihydro-1H-imidazol-1-yl]carbonyl}piperazine

> <IUPAC_TRADITIONAL_NAME>
1-{[(4R,5R)-4,5-bis(4-chlorophenyl)-2-(2-isopropoxy-4-methoxyphenyl)-4,5-dihydroimidazol-1-yl]carbonyl}piperazine

> <INCHI_IDENTIFIER>
InChI=1S/C30H32Cl2N4O3/c1-19(2)39-26-18-24(38-3)12-13-25(26)29-34-27(20-4-8-22(31)9-5-20)28(21-6-10-23(32)11-7-21)36(29)30(37)35-16-14-33-15-17-35/h4-13,18-19,27-28,33H,14-17H2,1-3H3/t27-,28-/m1/s1

> <INCHI_KEY>
InChIKey=ZXIPEZDMQNYFOO-VSGBNLITSA-N

> <SMILES>
COC1=CC=C(C2=N[C@@H]([C@H](N2C(=O)N2CCNCC2)C2=CC=C(Cl)C=C2)C2=CC=C(Cl)C=C2)C(OC(C)C)=C1

> <JCHEM_ACCEPTOR_COUNT>
5

> <JCHEM_DONOR_COUNT>
1

> <JCHEM_BASIC_PKA>
7.82

> <JCHEM_PHYSIOLOGICAL_CHARGE>
1

> <ALOGPS_LOGP>
5.19

> <JCHEM_LOGP>
5.91

> <ALOGPS_LOGS>
-5.8

> <JCHEM_POLARIZABILITY>
60.09

> <JCHEM_POLAR_SURFACE_AREA>
66.4

> <JCHEM_REFRACTIVITY>
154.08

> <JCHEM_ROTATABLE_BOND_COUNT>
6

> <ALOGPS_SOLUBILITY>
9.43e-04 g/l __ 

$$$$
