
  Mrv0541 02231217482D          

  8  7  0  0  0  0            999 V2000
    1.0461    1.4289    0.0000 O    0  0  0  0  0  0  0  0  0  0  0  0
    1.7605    1.8414    0.0000 C    0  0  0  0  0  0  0  0  0  0  0  0
    2.4750    1.4289    0.0000 C    0  0  0  0  0  0  0  0  0  0  0  0
    3.1895    1.8414    0.0000 C    0  0  0  0  0  0  0  0  0  0  0  0
    3.9039    1.4289    0.0000 C    0  0  0  0  0  0  0  0  0  0  0  0
    4.6184    1.8414    0.0000 C    0  0  0  0  0  0  0  0  0  0  0  0
    5.3329    1.4289    0.0000 C    0  0  0  0  0  0  0  0  0  0  0  0
    6.0474    1.8414    0.0000 Br   0  0  0  0  0  0  0  0  0  0  0  0
  1  2  1  0  0  0  0
  2  3  1  0  0  0  0
  3  4  1  0  0  0  0
  4  5  1  0  0  0  0
  5  6  1  0  0  0  0
  6  7  1  0  0  0  0
  7  8  1  0  0  0  0
M  END
> <DRUGBANK_ID>
DB04637

> <DRUG_GROUPS>
experimental

> <GENERIC_NAME>
6-Bromo-1-hexanol

> <CHEMICAL_FORMULA>
C6H13BrO

> <MOLECULAR_WEIGHT>
181.071

> <EXACT_MASS>
180.014977685

> <IUPAC_NAME>
6-bromohexan-1-ol

> <IUPAC_TRADITIONAL_NAME>
6-bromo-1-hexanol

> <INCHI_IDENTIFIER>
InChI=1S/C6H13BrO/c7-5-3-1-2-4-6-8/h8H,1-6H2

> <INCHI_KEY>
InChIKey=FCMCSZXRVWDVAW-UHFFFAOYSA-N

> <SMILES>
OCCCCCCBr

> <JCHEM_ACCEPTOR_COUNT>
1

> <JCHEM_DONOR_COUNT>
1

> <JCHEM_ACIDIC_PKA>
16.84

> <JCHEM_BASIC_PKA>
-2

> <JCHEM_PHYSIOLOGICAL_CHARGE>
0

> <ALOGPS_LOGP>
2.35

> <JCHEM_LOGP>
1.8

> <ALOGPS_LOGS>
-2.2

> <JCHEM_POLARIZABILITY>
16.63

> <JCHEM_POLAR_SURFACE_AREA>
20.23

> <JCHEM_REFRACTIVITY>
39.3

> <JCHEM_ROTATABLE_BOND_COUNT>
5

> <ALOGPS_SOLUBILITY>
1.14e+00 g/l __ 

$$$$
