
  Mrv0541 02231217492D          

 31 32  0  0  0  0            999 V2000
    2.8579   -9.9000    0.0000 O    0  0  0  0  0  0  0  0  0  0  0  0
    3.5724  -10.3125    0.0000 C    0  0  0  0  0  0  0  0  0  0  0  0
    3.5724  -11.1375    0.0000 O    0  0  0  0  0  0  0  0  0  0  0  0
    4.2868   -9.9000    0.0000 C    0  0  0  0  0  0  0  0  0  0  0  0
    5.0013  -10.3125    0.0000 C    0  0  0  0  0  0  0  0  0  0  0  0
    5.7158   -9.9000    0.0000 C    0  0  0  0  0  0  0  0  0  0  0  0
    6.4302  -10.3125    0.0000 C    0  0  0  0  0  0  0  0  0  0  0  0
    7.1447   -9.9000    0.0000 C    0  0  0  0  0  0  0  0  0  0  0  0
    7.8592  -10.3125    0.0000 C    0  0  0  0  0  0  0  0  0  0  0  0
    8.5737   -9.9000    0.0000 O    0  0  0  0  0  0  0  0  0  0  0  0
    9.2881  -10.3125    0.0000 C    0  0  0  0  0  0  0  0  0  0  0  0
   10.0026   -9.9000    0.0000 C    0  0  0  0  0  0  0  0  0  0  0  0
   10.0026   -9.0750    0.0000 Cl   0  0  0  0  0  0  0  0  0  0  0  0
   10.7171  -10.3125    0.0000 C    0  0  0  0  0  0  0  0  0  0  0  0
   10.7171  -11.1375    0.0000 C    0  0  0  0  0  0  0  0  0  0  0  0
   11.4315  -11.5500    0.0000 N    0  0  0  0  0  0  0  0  0  0  0  0
   12.1460  -11.1375    0.0000 C    0  0  0  0  0  0  0  0  0  0  0  0
   12.1460  -10.3125    0.0000 O    0  0  0  0  0  0  0  0  0  0  0  0
   12.8605  -11.5500    0.0000 N    0  0  0  0  0  0  0  0  0  0  0  0
   13.5749  -11.1375    0.0000 C    0  0  0  0  0  0  0  0  0  0  0  0
   13.5749  -10.3125    0.0000 O    0  0  0  0  0  0  0  0  0  0  0  0
   14.2894  -11.5500    0.0000 C    0  0  0  0  0  0  0  0  0  0  0  0
   15.0039  -11.1375    0.0000 C    0  0  0  0  0  0  0  0  0  0  0  0
   15.7184  -11.5500    0.0000 C    0  0  0  0  0  0  0  0  0  0  0  0
   15.7184  -12.3750    0.0000 C    0  0  0  0  0  0  0  0  0  0  0  0
   15.0039  -12.7875    0.0000 C    0  0  0  0  0  0  0  0  0  0  0  0
   14.2894  -12.3750    0.0000 C    0  0  0  0  0  0  0  0  0  0  0  0
   13.5749  -12.7875    0.0000 Cl   0  0  0  0  0  0  0  0  0  0  0  0
   10.0026  -11.5500    0.0000 C    0  0  0  0  0  0  0  0  0  0  0  0
    9.2881  -11.1375    0.0000 C    0  0  0  0  0  0  0  0  0  0  0  0
    8.5737  -11.5500    0.0000 Cl   0  0  0  0  0  0  0  0  0  0  0  0
  1  2  1  0  0  0  0
  2  3  2  0  0  0  0
  2  4  1  0  0  0  0
  4  5  1  0  0  0  0
  5  6  1  0  0  0  0
  6  7  1  0  0  0  0
  7  8  1  0  0  0  0
  8  9  1  0  0  0  0
  9 10  1  0  0  0  0
 10 11  1  0  0  0  0
 11 12  2  0  0  0  0
 12 13  1  0  0  0  0
 12 14  1  0  0  0  0
 14 15  2  0  0  0  0
 15 16  1  0  0  0  0
 16 17  1  0  0  0  0
 17 18  2  0  0  0  0
 17 19  1  0  0  0  0
 19 20  1  0  0  0  0
 20 21  2  0  0  0  0
 20 22  1  0  0  0  0
 22 23  2  0  0  0  0
 23 24  1  0  0  0  0
 24 25  2  0  0  0  0
 25 26  1  0  0  0  0
 26 27  2  0  0  0  0
 22 27  1  0  0  0  0
 27 28  1  0  0  0  0
 15 29  1  0  0  0  0
 29 30  2  0  0  0  0
 11 30  1  0  0  0  0
 30 31  1  0  0  0  0
M  END
> <DRUGBANK_ID>
DB04642

> <DRUG_GROUPS>
experimental

> <GENERIC_NAME>
7-{2,6-DICHLORO-4-[3-(2-CHLORO-BENZOYL)-UREIDO]-PHENOXY}-HEPTANOIC ACID

> <CHEMICAL_FORMULA>
C21H21Cl3N2O5

> <MOLECULAR_WEIGHT>
487.761

> <EXACT_MASS>
486.051604913

> <IUPAC_NAME>
7-[2,6-dichloro-4-({[(2-chlorophenyl)formamido]carbonyl}amino)phenoxy]heptanoic acid

> <IUPAC_TRADITIONAL_NAME>
7-[2,6-dichloro-4-({[(2-chlorophenyl)formamido]carbonyl}amino)phenoxy]heptanoic acid

> <INCHI_IDENTIFIER>
InChI=1S/C21H21Cl3N2O5/c22-15-8-5-4-7-14(15)20(29)26-21(30)25-13-11-16(23)19(17(24)12-13)31-10-6-2-1-3-9-18(27)28/h4-5,7-8,11-12H,1-3,6,9-10H2,(H,27,28)(H2,25,26,29,30)

> <INCHI_KEY>
InChIKey=XQTOWNDCHQJXOQ-UHFFFAOYSA-N

> <SMILES>
OC(=O)CCCCCCOC1=C(Cl)C=C(NC(=O)NC(=O)C2=CC=CC=C2Cl)C=C1Cl

> <JCHEM_ACCEPTOR_COUNT>
5

> <JCHEM_DONOR_COUNT>
3

> <JCHEM_ACIDIC_PKA>
3.94

> <JCHEM_BASIC_PKA>
-4.9

> <JCHEM_PHYSIOLOGICAL_CHARGE>
-1

> <ALOGPS_LOGP>
5.21

> <JCHEM_LOGP>
5.71

> <ALOGPS_LOGS>
-6.5

> <JCHEM_POLARIZABILITY>
47.6

> <JCHEM_POLAR_SURFACE_AREA>
104.73

> <JCHEM_REFRACTIVITY>
120.05

> <JCHEM_ROTATABLE_BOND_COUNT>
10

> <ALOGPS_SOLUBILITY>
1.62e-04 g/l __ 

$$$$
