
  Mrv0541 02231218032D          

 32 35  0  0  0  0            999 V2000
    5.2528   -6.8514    0.0000 Cl   0  0  0  0  0  0  0  0  0  0  0  0
    2.3414    0.8464    0.0000 O    0  0  0  0  0  0  0  0  0  0  0  0
    5.2455    0.8464    0.0000 O    0  0  0  0  0  0  0  0  0  0  0  0
    4.5854   -3.0664    0.0000 O    0  0  0  0  0  0  0  0  0  0  0  0
    2.3645    4.3764    0.0000 N    0  0  0  0  0  0  0  0  0  0  0  0
    2.3645    6.0264    0.0000 N    0  0  0  0  0  0  0  0  0  0  0  0
    3.7935    1.0763    0.0000 N    0  0  0  0  0  0  0  0  0  0  0  0
    4.2060   -0.1932    0.0000 N    0  0  0  0  0  0  0  0  0  0  0  0
    4.6910   -0.8607    0.0000 N    0  0  0  0  0  0  0  0  0  0  0  0
    3.0791    4.7889    0.0000 C    0  0  0  0  0  0  0  0  0  0  0  0
    1.6500    4.7889    0.0000 C    0  0  0  0  0  0  0  0  0  0  0  0
    2.3645    3.5514    0.0000 C    0  0  0  0  0  0  0  0  0  0  0  0
    3.0791    5.6139    0.0000 C    0  0  0  0  0  0  0  0  0  0  0  0
    1.6500    5.6139    0.0000 C    0  0  0  0  0  0  0  0  0  0  0  0
    3.0791    3.1389    0.0000 C    0  0  0  0  0  0  0  0  0  0  0  0
    3.0791    2.3138    0.0000 C    0  0  0  0  0  0  0  0  0  0  0  0
    3.7935    1.9013    0.0000 C    0  0  0  0  0  0  0  0  0  0  0  0
    2.3645    6.8514    0.0000 C    0  0  0  0  0  0  0  0  0  0  0  0
    3.1261    0.5914    0.0000 C    0  0  0  0  0  0  0  0  0  0  0  0
    4.4610    0.5914    0.0000 C    0  0  0  0  0  0  0  0  0  0  0  0
    3.3810   -0.1932    0.0000 C    0  0  0  0  0  0  0  0  0  0  0  0
    4.3554   -1.6144    0.0000 C    0  0  0  0  0  0  0  0  0  0  0  0
    4.8403   -2.2818    0.0000 C    0  0  0  0  0  0  0  0  0  0  0  0
    5.2528   -3.5514    0.0000 C    0  0  0  0  0  0  0  0  0  0  0  0
    5.6653   -2.2818    0.0000 C    0  0  0  0  0  0  0  0  0  0  0  0
    5.9202   -3.0664    0.0000 C    0  0  0  0  0  0  0  0  0  0  0  0
    5.2528   -4.3764    0.0000 C    0  0  0  0  0  0  0  0  0  0  0  0
    5.9673   -4.7889    0.0000 C    0  0  0  0  0  0  0  0  0  0  0  0
    4.5383   -4.7889    0.0000 C    0  0  0  0  0  0  0  0  0  0  0  0
    5.9673   -5.6139    0.0000 C    0  0  0  0  0  0  0  0  0  0  0  0
    4.5383   -5.6139    0.0000 C    0  0  0  0  0  0  0  0  0  0  0  0
    5.2528   -6.0264    0.0000 C    0  0  0  0  0  0  0  0  0  0  0  0
  1 32  1  0  0  0  0
  2 19  2  0  0  0  0
  3 20  2  0  0  0  0
  4 23  1  0  0  0  0
  4 24  1  0  0  0  0
  5 10  1  0  0  0  0
  5 11  1  0  0  0  0
  5 12  1  0  0  0  0
  6 13  1  0  0  0  0
  6 14  1  0  0  0  0
  6 18  1  0  0  0  0
  7 17  1  0  0  0  0
  7 19  1  0  0  0  0
  7 20  1  0  0  0  0
  8  9  1  0  0  0  0
  8 20  1  0  0  0  0
  8 21  1  0  0  0  0
  9 22  2  0  0  0  0
 10 13  1  0  0  0  0
 11 14  1  0  0  0  0
 12 15  1  0  0  0  0
 15 16  1  0  0  0  0
 16 17  1  0  0  0  0
 19 21  1  0  0  0  0
 22 23  1  0  0  0  0
 23 25  2  0  0  0  0
 24 26  2  0  0  0  0
 24 27  1  0  0  0  0
 25 26  1  0  0  0  0
 27 28  2  0  0  0  0
 27 29  1  0  0  0  0
 28 30  1  0  0  0  0
 29 31  2  0  0  0  0
 30 32  2  0  0  0  0
 31 32  1  0  0  0  0
M  END
> <DRUGBANK_ID>
DB04957

> <DRUG_GROUPS>
investigational

> <GENERIC_NAME>
Azimilide

> <BRANDS>


> <CHEMICAL_FORMULA>
C23H28ClN5O3

> <MOLECULAR_WEIGHT>
457.953

> <EXACT_MASS>
457.188067494

> <IUPAC_NAME>
1-[(E)-{[5-(4-chlorophenyl)furan-2-yl]methylidene}amino]-3-[4-(4-methylpiperazin-1-yl)butyl]imidazolidine-2,4-dione

> <IUPAC_TRADITIONAL_NAME>
azimilide

> <INCHI_IDENTIFIER>
InChI=1S/C23H28ClN5O3/c1-26-12-14-27(15-13-26)10-2-3-11-28-22(30)17-29(23(28)31)25-16-20-8-9-21(32-20)18-4-6-19(24)7-5-18/h4-9,16H,2-3,10-15,17H2,1H3/b25-16+

> <INCHI_KEY>
InChIKey=MREBEPTUUMTTIA-PCLIKHOPSA-N

> <SMILES>
CN1CCN(CCCCN2C(=O)CN(\N=C\C3=CC=C(O3)C3=CC=C(Cl)C=C3)C2=O)CC1

> <JCHEM_ACCEPTOR_COUNT>
5

> <JCHEM_DONOR_COUNT>
0

> <JCHEM_ACIDIC_PKA>
14.1

> <JCHEM_BASIC_PKA>
8.7

> <JCHEM_PHYSIOLOGICAL_CHARGE>
1

> <ALOGPS_LOGP>
2.91

> <JCHEM_LOGP>
2.59

> <ALOGPS_LOGS>
-3.7

> <JCHEM_POLARIZABILITY>
50.31

> <JCHEM_POLAR_SURFACE_AREA>
72.6

> <JCHEM_REFRACTIVITY>
124.83

> <JCHEM_ROTATABLE_BOND_COUNT>
8

> <ALOGPS_SOLUBILITY>
8.61e-02 g/l __ 

$$$$
