
  Mrv0541 02231217372D          

 48 51  0  0  1  0            999 V2000
    5.1186   -6.1330    0.0000 C   0  0  0  0  0  0  0  0  0  0  0  0
    5.2296   -5.3155    0.0000 C   0  0  0  0  0  0  0  0  0  0  0  0
    4.5771   -4.8107    0.0000 O   0  0  0  0  0  0  0  0  0  0  0  0
    5.9931   -5.0029    0.0000 N   0  0  0  0  0  0  0  0  0  0  0  0
    6.1041   -4.1854    0.0000 C   0  0  0  0  0  0  0  0  0  0  0  0
    5.4516   -3.6805    0.0000 N   0  0  0  0  0  0  0  0  0  0  0  0
    6.8675   -3.8728    0.0000 N   0  0  0  0  0  0  0  0  0  0  0  0
    6.9777   -3.0615    0.0000 C   0  0  0  0  0  0  0  0  0  0  0  0
    6.2568   -2.6552    0.0000 C   0  0  0  0  0  0  0  0  0  0  0  0
    5.9995   -1.8319    0.0000 C   0  0  0  0  0  0  0  0  0  0  0  0
    5.3016   -1.2284    0.0000 C   0  0  2  0  0  0  0  0  0  0  0  0
    5.3079   -2.0534    0.0000 N   0  0  0  0  0  0  0  0  0  0  0  0
    4.5966   -2.4713    0.0000 C   0  0  0  0  0  0  0  0  0  0  0  0
    4.4971   -3.2994    0.0000 O   0  0  0  0  0  0  0  0  0  0  0  0
    3.7928   -2.0604    0.0000 C   0  0  2  0  0  0  0  0  0  0  0  0
    3.8374   -1.3204    0.0000 C   0  0  0  0  0  0  0  0  0  0  0  0
    4.0523   -0.6014    0.0000 C   0  0  0  0  0  0  0  0  0  0  0  0
    4.8598   -0.6627    0.0000 C   0  0  0  0  0  0  0  0  0  0  0  0
    5.6135   -0.3024    0.0000 C   0  0  0  0  0  0  0  0  0  0  0  0
    6.5705   -0.3684    0.0000 O   0  0  0  0  0  0  0  0  0  0  0  0
    5.8958    0.5444    0.0000 O   0  0  0  0  0  0  0  0  0  0  0  0
    2.9871   -2.2382    0.0000 N   0  0  0  0  0  0  0  0  0  0  0  0
    2.5692   -1.5269    0.0000 C   0  0  0  0  0  0  0  0  0  0  0  0
    1.7456   -1.7254    0.0000 O   0  0  0  0  0  0  0  0  0  0  0  0
    3.1165   -0.9096    0.0000 C   0  0  2  0  0  0  0  0  0  0  0  0
    2.2953   -0.6548    0.0000 C   0  0  0  0  0  0  0  0  0  0  0  0
    2.2329    0.2135    0.0000 C   0  0  0  0  0  0  0  0  0  0  0  0
    2.8245    0.7886    0.0000 C   0  0  0  0  0  0  0  0  0  0  0  0
    2.4603    1.5288    0.0000 N   0  0  0  0  0  0  0  0  0  0  0  0
    1.6437    1.4112    0.0000 C   0  0  0  0  0  0  0  0  0  0  0  0
    1.5032    0.5983    0.0000 N   0  0  0  0  0  0  0  0  0  0  0  0
    3.1488   -0.0074    0.0000 N   0  0  0  0  0  0  0  0  0  0  0  0
    2.5921    0.6015    0.0000 C   0  0  2  0  0  0  0  0  0  0  0  0
    1.9716    1.0086    0.0000 O   0  0  0  0  0  0  0  0  0  0  0  0
    2.9991    1.3191    0.0000 C   0  0  0  0  0  0  0  0  0  0  0  0
    3.8538    1.2356    0.0000 C   0  0  2  0  0  0  0  0  0  0  0  0
    4.5651    1.6535    0.0000 N   0  0  0  0  0  0  0  0  0  0  0  0
    5.0879    1.1179    0.0000 C   0  0  0  0  0  0  0  0  0  0  0  0
    5.3755    1.9339    0.0000 O   0  0  0  0  0  0  0  0  0  0  0  0
    5.2890    0.4215    0.0000 C   0  0  1  0  0  0  0  0  0  0  0  0
    5.4543    1.2298    0.0000 C   0  0  0  0  0  0  0  0  0  0  0  0
    6.2741    1.3223    0.0000 C   0  0  0  0  0  0  0  0  0  0  0  0
    6.6154    0.5712    0.0000 C   0  0  0  0  0  0  0  0  0  0  0  0
    6.0066    0.0145    0.0000 N   0  0  0  0  0  0  0  0  0  0  0  0
    6.0129   -0.8104    0.0000 C   0  0  0  0  0  0  0  0  0  0  0  0
    6.8311   -1.1872    0.0000 O   0  0  0  0  0  0  0  0  0  0  0  0
    3.8601    0.4106    0.0000 C   0  0  0  0  0  0  0  0  0  0  0  0
    4.5716    0.1263    0.0000 O   0  0  0  0  0  0  0  0  0  0  0  0
  1  2  1  0  0  0  0
  2  3  2  0  0  0  0
  2  4  1  0  0  0  0
  4  5  1  0  0  0  0
  5  6  1  0  0  0  0
  5  7  2  0  0  0  0
  7  8  1  0  0  0  0
  8  9  1  0  0  0  0
  9 10  1  0  0  0  0
 11 10  1  1  0  0  0
 11 12  1  0  0  0  0
 12 13  1  0  0  0  0
 13 14  2  0  0  0  0
 13 15  1  0  0  0  0
 15 16  1  1  0  0  0
 16 17  1  0  0  0  0
 17 18  1  0  0  0  0
 18 19  1  0  0  0  0
 19 20  1  0  0  0  0
 19 21  2  0  0  0  0
 15 22  1  0  0  0  0
 22 23  1  0  0  0  0
 23 24  2  0  0  0  0
 23 25  1  0  0  0  0
 25 26  1  1  0  0  0
 26 27  1  0  0  0  0
 27 28  2  0  0  0  0
 28 29  1  0  0  0  0
 29 30  2  0  0  0  0
 30 31  1  0  0  0  0
 27 31  1  0  0  0  0
 25 32  1  0  0  0  0
 32 33  1  0  0  0  0
 33 34  1  6  0  0  0
 33 35  1  0  0  0  0
 36 35  1  6  0  0  0
 36 37  1  0  0  0  0
 37 38  1  0  0  0  0
 38 39  2  0  0  0  0
 38 40  1  0  0  0  0
 40 41  1  0  0  0  0
 41 42  1  0  0  0  0
 42 43  1  0  0  0  0
 43 44  1  0  0  0  0
 40 44  1  1  0  0  0
 44 45  1  0  0  0  0
 11 45  1  0  0  0  0
 45 46  2  0  0  0  0
 36 47  1  0  0  0  0
 32 47  1  0  0  0  0
 47 48  2  0  0  0  0
M  END
> <DRUGBANK_ID>
DB04350

> <DRUG_GROUPS>
experimental

> <GENERIC_NAME>
Argadin

> <SYNONYMS>


> <CHEMICAL_FORMULA>
C29H42N10O9

> <MOLECULAR_WEIGHT>
674.7054

> <EXACT_MASS>
674.313622992

> <IUPAC_NAME>
4-[(1S,4R,10S,13S,16S,18R)-10-{3-[(E)-[amino(acetamido)methylidene]amino]propyl}-18-hydroxy-16-(1H-imidazol-5-ylmethyl)-3,9,12,15,20-pentaoxo-2,8,11,14,17-pentaazatricyclo[15.2.1.0^{4,8}]icosan-13-yl]butanoic acid

> <IUPAC_TRADITIONAL_NAME>
argadin

> <INCHI_IDENTIFIER>
InChI=1S/C29H42N10O9/c1-15(40)34-29(30)32-9-3-6-18-27(47)38-10-4-7-20(38)25(45)37-19-12-22(41)39(28(19)48)21(11-16-13-31-14-33-16)26(46)35-17(24(44)36-18)5-2-8-23(42)43/h13-14,17-22,41H,2-12H2,1H3,(H,31,33)(H,35,46)(H,36,44)(H,37,45)(H,42,43)(H3,30,32,34,40)/t17-,18-,19-,20+,21-,22+/m0/s1

> <INCHI_KEY>
InChIKey=FOZYKTUSOWWQGR-KNPYFFGGSA-N

> <SMILES>
CC(=O)N\C(N)=N\CCC[C@@H]1NC(=O)[C@H](CCCC(O)=O)NC(=O)[C@H](CC2=CN=CN2)N2[C@H](O)C[C@H](NC(=O)[C@H]3CCCN3C1=O)C2=O

> <JCHEM_ACCEPTOR_COUNT>
12

> <JCHEM_DONOR_COUNT>
8

> <JCHEM_ACIDIC_PKA>
3.7

> <JCHEM_BASIC_PKA>
6.85

> <JCHEM_PHYSIOLOGICAL_CHARGE>
0

> <ALOGPS_LOGP>
-1.8

> <JCHEM_LOGP>
-5.8

> <ALOGPS_LOGS>
-2.8

> <JCHEM_POLARIZABILITY>
66.86

> <JCHEM_POLAR_SURFACE_AREA>
281.61

> <JCHEM_REFRACTIVITY>
163.37

> <JCHEM_ROTATABLE_BOND_COUNT>
10

> <ALOGPS_SOLUBILITY>
1.14e+00 g/l __ 

$$$$
