4832
  Mrv0541 02231217572D          

 19 20  0  0  0  0            999 V2000
    3.7935   -2.8876    0.0000 Br   0  0  0  0  0  0  0  0  0  0  0  0
    2.3645    2.0625    0.0000 N    0  0  0  0  0  0  0  0  0  0  0  0
    5.9370    0.8250    0.0000 N    0  0  0  0  0  0  0  0  0  0  0  0
    3.7935    0.4125    0.0000 C    0  0  0  0  0  0  0  0  0  0  0  0
    3.0791    1.6500    0.0000 C    0  0  0  0  0  0  0  0  0  0  0  0
    3.0791    0.8250    0.0000 C    0  0  0  0  0  0  0  0  0  0  0  0
    3.7935   -0.4125    0.0000 C    0  0  0  0  0  0  0  0  0  0  0  0
    4.5080    0.8250    0.0000 C    0  0  0  0  0  0  0  0  0  0  0  0
    4.5080   -0.8250    0.0000 C    0  0  0  0  0  0  0  0  0  0  0  0
    3.0791   -0.8250    0.0000 C    0  0  0  0  0  0  0  0  0  0  0  0
    2.3645    2.8876    0.0000 C    0  0  0  0  0  0  0  0  0  0  0  0
    1.6500    1.6500    0.0000 C    0  0  0  0  0  0  0  0  0  0  0  0
    4.5080    1.6500    0.0000 C    0  0  0  0  0  0  0  0  0  0  0  0
    5.2224    0.4125    0.0000 C    0  0  0  0  0  0  0  0  0  0  0  0
    4.5080   -1.6500    0.0000 C    0  0  0  0  0  0  0  0  0  0  0  0
    3.0791   -1.6500    0.0000 C    0  0  0  0  0  0  0  0  0  0  0  0
    3.7935   -2.0625    0.0000 C    0  0  0  0  0  0  0  0  0  0  0  0
    5.2224    2.0625    0.0000 C    0  0  0  0  0  0  0  0  0  0  0  0
    5.9370    1.6500    0.0000 C    0  0  0  0  0  0  0  0  0  0  0  0
  1 17  1  0  0  0  0
  2  5  1  0  0  0  0
  2 11  1  0  0  0  0
  2 12  1  0  0  0  0
  3 14  1  0  0  0  0
  3 19  2  0  0  0  0
  4  6  2  3  0  0  0
  4  7  1  0  0  0  0
  4  8  1  0  0  0  0
  5  6  1  0  0  0  0
  7  9  2  0  0  0  0
  7 10  1  0  0  0  0
  8 13  1  0  0  0  0
  8 14  2  0  0  0  0
  9 15  1  0  0  0  0
 10 16  2  0  0  0  0
 13 18  2  0  0  0  0
 15 17  2  0  0  0  0
 16 17  1  0  0  0  0
 18 19  1  0  0  0  0
M  END
> <DRUGBANK_ID>
DB04832

> <DRUG_GROUPS>
withdrawn

> <GENERIC_NAME>
Zimelidine

> <SYNONYMS>


> <CHEMICAL_FORMULA>
C16H17BrN2

> <MOLECULAR_WEIGHT>
317.224

> <EXACT_MASS>
316.057511201

> <IUPAC_NAME>
[3-(4-bromophenyl)-3-(pyridin-3-yl)prop-2-en-1-yl]dimethylamine

> <IUPAC_TRADITIONAL_NAME>
[3-(4-bromophenyl)-3-(pyridin-3-yl)prop-2-en-1-yl]dimethylamine

> <INCHI_IDENTIFIER>
InChI=1S/C16H17BrN2/c1-19(2)11-9-16(14-4-3-10-18-12-14)13-5-7-15(17)8-6-13/h3-10,12H,11H2,1-2H3/b16-9-

> <INCHI_KEY>
InChIKey=OYPPVKRFBIWMSX-SXGWCWSVSA-N

> <SMILES>
CN(C)CC=C(C1=CC=C(Br)C=C1)C1=CN=CC=C1

> <JCHEM_ACCEPTOR_COUNT>
2

> <JCHEM_DONOR_COUNT>
0

> <JCHEM_BASIC_PKA>
8.62

> <JCHEM_PHYSIOLOGICAL_CHARGE>
1

> <ALOGPS_LOGP>
3.39

> <JCHEM_LOGP>
3.51

> <ALOGPS_LOGS>
-4.1

> <JCHEM_POLARIZABILITY>
30.96

> <JCHEM_POLAR_SURFACE_AREA>
16.13

> <JCHEM_REFRACTIVITY>
93.94

> <JCHEM_ROTATABLE_BOND_COUNT>
4

> <ALOGPS_SOLUBILITY>
2.39e-02 g/l __ 

$$$$
