
  Mrv0541 02231217452D          

 20 21  0  0  0  0            999 V2000
    1.6500   -2.6582    0.0000 F   0  0  0  0  0  0  0  0  0  0  0  0
    2.7770   -2.9602    0.0000 F   0  0  0  0  0  0  0  0  0  0  0  0
    1.9520   -1.5312    0.0000 F   0  0  0  0  0  0  0  0  0  0  0  0
    3.7935    2.7044    0.0000 O   0  0  0  0  0  0  0  0  0  0  0  0
    3.0791    1.4669    0.0000 O   0  0  0  0  0  0  0  0  0  0  0  0
    3.7935    0.2294    0.0000 N   0  0  0  0  0  0  0  0  0  0  0  0
    5.2224    0.2294    0.0000 N   0  0  0  0  0  0  0  0  0  0  0  0
    3.7935   -0.5957    0.0000 C   0  0  0  0  0  0  0  0  0  0  0  0
    3.0791   -1.8332    0.0000 C   0  0  0  0  0  0  0  0  0  0  0  0
    3.0791   -1.0082    0.0000 C   0  0  0  0  0  0  0  0  0  0  0  0
    4.5080    0.6419    0.0000 C   0  0  0  0  0  0  0  0  0  0  0  0
    4.5080   -1.0082    0.0000 C   0  0  0  0  0  0  0  0  0  0  0  0
    3.7935   -2.2457    0.0000 C   0  0  0  0  0  0  0  0  0  0  0  0
    4.5080    1.4669    0.0000 C   0  0  0  0  0  0  0  0  0  0  0  0
    4.5080   -1.8332    0.0000 C   0  0  0  0  0  0  0  0  0  0  0  0
    2.3645   -2.2457    0.0000 C   0  0  0  0  0  0  0  0  0  0  0  0
    5.2224    1.8794    0.0000 C   0  0  0  0  0  0  0  0  0  0  0  0
    5.9370    1.4669    0.0000 C   0  0  0  0  0  0  0  0  0  0  0  0
    5.9370    0.6419    0.0000 C   0  0  0  0  0  0  0  0  0  0  0  0
    3.7935    1.8794    0.0000 C   0  0  0  0  0  0  0  0  0  0  0  0
  1 16  1  0  0  0  0
  2 16  1  0  0  0  0
  3 16  1  0  0  0  0
  4 20  1  0  0  0  0
  5 20  2  0  0  0  0
  6  8  1  0  0  0  0
  6 11  1  0  0  0  0
  7 11  1  0  0  0  0
  7 19  2  0  0  0  0
  8 10  1  0  0  0  0
  8 12  2  0  0  0  0
  9 10  2  0  0  0  0
  9 13  1  0  0  0  0
  9 16  1  0  0  0  0
 11 14  2  0  0  0  0
 12 15  1  0  0  0  0
 13 15  2  0  0  0  0
 14 17  1  0  0  0  0
 14 20  1  0  0  0  0
 17 18  2  0  0  0  0
 18 19  1  0  0  0  0
M  END
> <DRUGBANK_ID>
DB04552

> <DRUG_GROUPS>
approved

> <GENERIC_NAME>
Niflumic Acid

> <SYNONYMS>
Acide niflumique; Acido niflumico; Acidum niflumicum

> <BRANDS>


> <CHEMICAL_FORMULA>
C13H9F3N2O2

> <MOLECULAR_WEIGHT>
282.218

> <EXACT_MASS>
282.061612157

> <IUPAC_NAME>
2-{[3-(trifluoromethyl)phenyl]amino}pyridine-3-carboxylic acid

> <IUPAC_TRADITIONAL_NAME>
niflumic acid

> <INCHI_IDENTIFIER>
InChI=1S/C13H9F3N2O2/c14-13(15,16)8-3-1-4-9(7-8)18-11-10(12(19)20)5-2-6-17-11/h1-7H,(H,17,18)(H,19,20)

> <INCHI_KEY>
InChIKey=JZFPYUNJRRFVQU-UHFFFAOYSA-N

> <SMILES>
OC(=O)C1=C(NC2=CC=CC(=C2)C(F)(F)F)N=CC=C1

> <JCHEM_ACCEPTOR_COUNT>
4

> <JCHEM_DONOR_COUNT>
2

> <JCHEM_ACIDIC_PKA>
1.88

> <JCHEM_BASIC_PKA>
5.51

> <JCHEM_PHYSIOLOGICAL_CHARGE>
-1

> <ALOGPS_LOGP>
4.33

> <JCHEM_LOGP>
3.12

> <ALOGPS_LOGS>
-3.5

> <JCHEM_POLARIZABILITY>
24.21

> <JCHEM_POLAR_SURFACE_AREA>
62.22

> <JCHEM_REFRACTIVITY>
65.93

> <JCHEM_ROTATABLE_BOND_COUNT>
4

> <ALOGPS_SOLUBILITY>
8.83e-02 g/l __ 

$$$$
