[NO NAME]
  Mrv0541 04301222212D          
Created with ChemWriter - http://chemwriter.com
 21 22  0  0  0  0            999 V2000
    0.0000    0.8250    0.0000 O   0  0  0  0  0  0  0  0  0  0  0  0
    0.7145    0.4125    0.0000 C   0  0  0  0  0  0  0  0  0  0  0  0
   -0.7145   -0.4125    0.0000 C   0  0  0  0  0  0  0  0  0  0  0  0
   -0.7145    0.4125    0.0000 C   0  0  0  0  0  0  0  0  0  0  0  0
    0.7145   -0.4125    0.0000 C   0  0  0  0  0  0  0  0  0  0  0  0
   -1.4289    0.8250    0.0000 C   0  0  0  0  0  0  0  0  0  0  0  0
   -2.1434    0.4125    0.0000 C   0  0  0  0  0  0  0  0  0  0  0  0
   -2.1434   -0.4125    0.0000 C   0  0  0  0  0  0  0  0  0  0  0  0
   -1.4289   -0.8250    0.0000 C   0  0  0  0  0  0  0  0  0  0  0  0
    2.1434   -0.4125    0.0000 C   0  0  0  0  0  0  0  0  0  0  0  0
    2.1434    0.4125    0.0000 C   0  0  0  0  0  0  0  0  0  0  0  0
    1.4290   -0.8250    0.0000 C   0  0  0  0  0  0  0  0  0  0  0  0
    2.1433   -2.0625    0.0000 O   0  5  0  0  0  0  0  0  0  0  0  0
    1.4290   -1.6500    0.0000 N   0  3  0  0  0  0  0  0  0  0  0  0
    0.7144   -2.0625    0.0000 O   0  0  0  0  0  0  0  0  0  0  0  0
    1.4290    0.8250    0.0000 C   0  0  0  0  0  0  0  0  0  0  0  0
    1.4290    1.6500    0.0000 N   0  0  0  0  0  0  0  0  0  0  0  0
    2.1434    2.0625    0.0000 S   0  0  0  0  0  0  0  0  0  0  0  0
    2.1434    1.2375    0.0000 O   0  0  0  0  0  0  0  0  0  0  0  0
    2.1434    2.8875    0.0000 O   0  0  0  0  0  0  0  0  0  0  0  0
    2.8579    1.6499    0.0000 C   0  0  0  0  0  0  0  0  0  0  0  0
  1  2  1  0  0  0  0
 16  2  2  0  0  0  0
  9  3  2  0  0  0  0
  3  4  1  0  0  0  0
  4  1  1  0  0  0  0
  6  4  2  0  0  0  0
  2  5  1  0  0  0  0
  5 12  2  0  0  0  0
  6  7  1  0  0  0  0
  7  8  2  0  0  0  0
  8  9  1  0  0  0  0
 12 10  1  0  0  0  0
 10 11  2  0  0  0  0
 16 11  1  0  0  0  0
 12 14  1  0  0  0  0
 14 13  1  0  0  0  0
 14 15  2  0  0  0  0
 16 17  1  0  0  0  0
 17 18  1  0  0  0  0
 18 20  2  0  0  0  0
 18 21  1  0  0  0  0
 18 19  2  0  0  0  0
M  END
> <DRUGBANK_ID>
DB04743

> <DRUG_GROUPS>
withdrawn

> <GENERIC_NAME>
Nimesulide

> <CHEMICAL_FORMULA>
C13H12N2O5S

> <MOLECULAR_WEIGHT>
308.31

> <EXACT_MASS>
308.046692194

> <IUPAC_NAME>
N-(4-nitro-2-phenoxyphenyl)methanesulfonamide

> <IUPAC_TRADITIONAL_NAME>
nimesulide

> <INCHI_IDENTIFIER>
InChI=1S/C13H12N2O5S/c1-21(18,19)14-12-8-7-10(15(16)17)9-13(12)20-11-5-3-2-4-6-11/h2-9,14H,1H3

> <INCHI_KEY>
InChIKey=HYWYRSMBCFDLJT-UHFFFAOYSA-N

> <SMILES>
CS(=O)(=O)NC1=C(OC2=CC=CC=C2)C=C(C=C1)[N+]([O-])=O

> <JCHEM_ACCEPTOR_COUNT>
4

> <JCHEM_DONOR_COUNT>
1

> <JCHEM_ACIDIC_PKA>
6.86

> <JCHEM_BASIC_PKA>
-8.9

> <JCHEM_PHYSIOLOGICAL_CHARGE>
-1

> <ALOGPS_LOGP>
2.56

> <JCHEM_LOGP>
1.79

> <ALOGPS_LOGS>
-4.2

> <JCHEM_POLARIZABILITY>
28.87

> <JCHEM_POLAR_SURFACE_AREA>
101.22

> <JCHEM_REFRACTIVITY>
76.31

> <JCHEM_ROTATABLE_BOND_COUNT>
4

> <ALOGPS_SOLUBILITY>
1.82e-02 g/l __ 

$$$$
