
  Mrv0541 02231217362D          

 14 13  0  0  0  0            999 V2000
    4.7586    3.5724    0.0000 C   0  0  0  0  0  0  0  0  0  0  0  0
    5.4730    3.9849    0.0000 O   0  0  0  0  0  0  0  0  0  0  0  0
    6.1875    3.5724    0.0000 C   0  0  0  0  0  0  0  0  0  0  0  0
    6.9020    3.9849    0.0000 C   0  0  0  0  0  0  0  0  0  0  0  0
    7.6164    3.5724    0.0000 O   0  0  0  0  0  0  0  0  0  0  0  0
    8.3309    3.9849    0.0000 C   0  0  0  0  0  0  0  0  0  0  0  0
    9.0454    3.5724    0.0000 C   0  0  0  0  0  0  0  0  0  0  0  0
    9.7599    3.9849    0.0000 O   0  0  0  0  0  0  0  0  0  0  0  0
   10.4743    3.5724    0.0000 C   0  0  0  0  0  0  0  0  0  0  0  0
   11.1888    3.9849    0.0000 C   0  0  0  0  0  0  0  0  0  0  0  0
   11.9033    3.5724    0.0000 O   0  0  0  0  0  0  0  0  0  0  0  0
   12.6177    3.9849    0.0000 C   0  0  0  0  0  0  0  0  0  0  0  0
   13.3322    3.5724    0.0000 C   0  0  0  0  0  0  0  0  0  0  0  0
   14.0467    3.9849    0.0000 O   0  0  0  0  0  0  0  0  0  0  0  0
  1  2  1  0  0  0  0
  2  3  1  0  0  0  0
  3  4  1  0  0  0  0
  4  5  1  0  0  0  0
  5  6  1  0  0  0  0
  6  7  1  0  0  0  0
  7  8  1  0  0  0  0
  8  9  1  0  0  0  0
  9 10  1  0  0  0  0
 10 11  1  0  0  0  0
 11 12  1  0  0  0  0
 12 13  1  0  0  0  0
 13 14  1  0  0  0  0
M  END
> <DRUGBANK_ID>
DB04332

> <DRUG_GROUPS>
experimental

> <GENERIC_NAME>
2-{2-[2-2-(Methoxy-Ethoxy)-Ethoxy]-Ethoxy}-Ethanol

> <CHEMICAL_FORMULA>
C9H20O5

> <MOLECULAR_WEIGHT>
208.2521

> <EXACT_MASS>
208.13107375

> <IUPAC_NAME>
2,5,8,11-tetraoxatridecan-13-ol

> <IUPAC_TRADITIONAL_NAME>
2,5,8,11-tetraoxatridecan-13-ol

> <INCHI_IDENTIFIER>
InChI=1S/C9H20O5/c1-11-4-5-13-8-9-14-7-6-12-3-2-10/h10H,2-9H2,1H3

> <INCHI_KEY>
InChIKey=ZNYRFEPBTVGZDN-UHFFFAOYSA-N

> <SMILES>
COCCOCCOCCOCCO

> <JCHEM_ACCEPTOR_COUNT>
5

> <JCHEM_DONOR_COUNT>
1

> <JCHEM_ACIDIC_PKA>
15.12

> <JCHEM_BASIC_PKA>
-2.7

> <JCHEM_PHYSIOLOGICAL_CHARGE>
0

> <ALOGPS_LOGP>
-0.42

> <JCHEM_LOGP>
-0.71

> <ALOGPS_LOGS>
-0.82

> <JCHEM_POLARIZABILITY>
23.96

> <JCHEM_POLAR_SURFACE_AREA>
57.15

> <JCHEM_REFRACTIVITY>
52.44

> <JCHEM_ROTATABLE_BOND_COUNT>
11

> <ALOGPS_SOLUBILITY>
3.18e+01 g/l __ 

$$$$
