
  Mrv0541 02231217532D          

 20 19  0  0  0  0            999 V2000
   -0.7658    4.5079    0.0000 C   0  0  0  0  0  0  0  0  0  0  0  0
   -0.0513    4.0954    0.0000 C   0  0  0  0  0  0  0  0  0  0  0  0
   -0.0513    3.2704    0.0000 C   0  0  0  0  0  0  0  0  0  0  0  0
    0.6632    2.8579    0.0000 C   0  0  0  0  0  0  0  0  0  0  0  0
    1.3776    3.2704    0.0000 C   0  0  0  0  0  0  0  0  0  0  0  0
    2.0921    2.8579    0.0000 C   0  0  0  0  0  0  0  0  0  0  0  0
    2.8066    3.2704    0.0000 C   0  0  0  0  0  0  0  0  0  0  0  0
    3.5211    2.8579    0.0000 C   0  0  0  0  0  0  0  0  0  0  0  0
    4.2355    3.2704    0.0000 C   0  0  0  0  0  0  0  0  0  0  0  0
    4.9500    2.8579    0.0000 C   0  0  0  0  0  0  0  0  0  0  0  0
    5.6645    3.2704    0.0000 C   0  0  0  0  0  0  0  0  0  0  0  0
    6.3789    2.8579    0.0000 C   0  0  0  0  0  0  0  0  0  0  0  0
    7.0934    3.2704    0.0000 C   0  0  0  0  0  0  0  0  0  0  0  0
    7.8079    2.8579    0.0000 C   0  0  0  0  0  0  0  0  0  0  0  0
    8.5224    3.2704    0.0000 C   0  0  0  0  0  0  0  0  0  0  0  0
    9.2368    2.8579    0.0000 C   0  0  0  0  0  0  0  0  0  0  0  0
    9.9513    3.2704    0.0000 C   0  0  0  0  0  0  0  0  0  0  0  0
   10.6658    2.8579    0.0000 C   0  0  0  0  0  0  0  0  0  0  0  0
   11.3802    3.2704    0.0000 O   0  0  0  0  0  0  0  0  0  0  0  0
   10.6658    2.0329    0.0000 O   0  0  0  0  0  0  0  0  0  0  0  0
  1  2  1  0  0  0  0
  2  3  1  0  0  0  0
  3  4  2  0  0  0  0
  4  5  1  0  0  0  0
  5  6  2  0  0  0  0
  6  7  1  0  0  0  0
  7  8  2  0  0  0  0
  8  9  1  0  0  0  0
  9 10  1  0  0  0  0
 10 11  1  0  0  0  0
 11 12  1  0  0  0  0
 12 13  1  0  0  0  0
 13 14  1  0  0  0  0
 14 15  1  0  0  0  0
 15 16  1  0  0  0  0
 16 17  1  0  0  0  0
 17 18  1  0  0  0  0
 18 19  1  0  0  0  0
 18 20  2  0  0  0  0
M  END
> <DRUGBANK_ID>
DB04747

> <DRUG_GROUPS>
experimental

> <GENERIC_NAME>
11-TRANS-13-TRANS-15-CIS-OCTADECATRIENOIC ACID

> <CHEMICAL_FORMULA>
C18H30O2

> <MOLECULAR_WEIGHT>
278.4296

> <EXACT_MASS>
278.224580204

> <IUPAC_NAME>
(11E,13E,15Z)-octadeca-11,13,15-trienoic acid

> <IUPAC_TRADITIONAL_NAME>
(11E,13E,15Z)-octadeca-11,13,15-trienoic acid

> <INCHI_IDENTIFIER>
InChI=1S/C18H30O2/c1-2-3-4-5-6-7-8-9-10-11-12-13-14-15-16-17-18(19)20/h3-8H,2,9-17H2,1H3,(H,19,20)/b4-3-,6-5+,8-7+

> <INCHI_KEY>
InChIKey=ZSXWVPXJLXTOQQ-ZRGCPWHVSA-N

> <SMILES>
CC\C=C/C=C/C=C/CCCCCCCCCC(O)=O

> <JCHEM_ACCEPTOR_COUNT>
2

> <JCHEM_DONOR_COUNT>
1

> <JCHEM_ACIDIC_PKA>
4.95

> <JCHEM_PHYSIOLOGICAL_CHARGE>
-1

> <ALOGPS_LOGP>
6.66

> <JCHEM_LOGP>
6.06

> <ALOGPS_LOGS>
-6.1

> <JCHEM_POLARIZABILITY>
36.18

> <JCHEM_POLAR_SURFACE_AREA>
37.3

> <JCHEM_REFRACTIVITY>
89.64

> <JCHEM_ROTATABLE_BOND_COUNT>
13

> <ALOGPS_SOLUBILITY>
2.33e-04 g/l __ 

$$$$
