
  Mrv0541 02231217282D          

 11 11  0  0  0  0            999 V2000
   -0.7145    3.7125    0.0000 N   0  0  0  0  0  0  0  0  0  0  0  0
    0.0000    3.3000    0.0000 O   0  0  0  0  0  0  0  0  0  0  0  0
    0.0000    2.4750    0.0000 C   0  0  0  0  0  0  0  0  0  0  0  0
   -0.7145    2.0625    0.0000 O   0  0  0  0  0  0  0  0  0  0  0  0
    0.7145    2.0625    0.0000 N   0  0  0  0  0  0  0  0  0  0  0  0
    0.7145    1.2375    0.0000 C   0  0  0  0  0  0  0  0  0  0  0  0
    1.4289    0.8250    0.0000 C   0  0  0  0  0  0  0  0  0  0  0  0
    1.4289    0.0000    0.0000 C   0  0  0  0  0  0  0  0  0  0  0  0
    0.7145   -0.4125    0.0000 C   0  0  0  0  0  0  0  0  0  0  0  0
    0.0000    0.0000    0.0000 C   0  0  0  0  0  0  0  0  0  0  0  0
    0.0000    0.8250    0.0000 C   0  0  0  0  0  0  0  0  0  0  0  0
  1  2  1  0  0  0  0
  2  3  1  0  0  0  0
  3  4  2  0  0  0  0
  3  5  1  0  0  0  0
  5  6  1  0  0  0  0
  6  7  2  0  0  0  0
  7  8  1  0  0  0  0
  8  9  2  0  0  0  0
  9 10  1  0  0  0  0
 10 11  2  0  0  0  0
  6 11  1  0  0  0  0
M  END
> <DRUGBANK_ID>
DB04157

> <DRUG_GROUPS>
experimental

> <GENERIC_NAME>
N-[(Aminooxy)Carbonyl]Aniline

> <CHEMICAL_FORMULA>
C7H8N2O2

> <MOLECULAR_WEIGHT>
152.1506

> <EXACT_MASS>
152.05857751

> <IUPAC_NAME>
amino N-phenylcarbamate

> <IUPAC_TRADITIONAL_NAME>
amino N-phenylcarbamate

> <INCHI_IDENTIFIER>
InChI=1S/C7H8N2O2/c8-11-7(10)9-6-4-2-1-3-5-6/h1-5H,8H2,(H,9,10)

> <INCHI_KEY>
InChIKey=YQHOHPOCZUAUKP-UHFFFAOYSA-N

> <SMILES>
NOC(=O)NC1=CC=CC=C1

> <JCHEM_ACCEPTOR_COUNT>
3

> <JCHEM_DONOR_COUNT>
2

> <JCHEM_ACIDIC_PKA>
12.65

> <JCHEM_BASIC_PKA>
2.6

> <JCHEM_PHYSIOLOGICAL_CHARGE>
0

> <ALOGPS_LOGP>
1.11

> <JCHEM_LOGP>
1.31

> <ALOGPS_LOGS>
-1.4

> <JCHEM_POLARIZABILITY>
14.92

> <JCHEM_POLAR_SURFACE_AREA>
64.35

> <JCHEM_REFRACTIVITY>
42.13

> <JCHEM_ROTATABLE_BOND_COUNT>
2

> <ALOGPS_SOLUBILITY>
5.60e+00 g/l __ 

$$$$
