
  Mrv0541 02231217452D          

 10 10  0  0  1  0            999 V2000
    2.1434    2.0625    0.0000 O   0  0  0  0  0  0  0  0  0  0  0  0
    2.1434    1.2375    0.0000 C   0  0  0  0  0  0  0  0  0  0  0  0
    1.4289    0.8250    0.0000 C   0  0  1  0  0  0  0  0  0  0  0  0
    1.4289    0.0000    0.0000 C   0  0  0  0  0  0  0  0  0  0  0  0
    0.7145   -0.4125    0.0000 N   0  0  0  0  0  0  0  0  0  0  0  0
    0.0000    0.0000    0.0000 C   0  0  0  0  0  0  0  0  0  0  0  0
    0.0000    0.8250    0.0000 C   0  0  1  0  0  0  0  0  0  0  0  0
   -0.7145    1.2375    0.0000 O   0  0  0  0  0  0  0  0  0  0  0  0
    0.7145    1.2375    0.0000 C   0  0  2  0  0  0  0  0  0  0  0  0
    0.7145    2.0625    0.0000 O   0  0  0  0  0  0  0  0  0  0  0  0
  1  2  1  0  0  0  0
  3  2  1  1  0  0  0
  3  4  1  0  0  0  0
  4  5  1  0  0  0  0
  5  6  1  0  0  0  0
  6  7  1  0  0  0  0
  7  8  1  1  0  0  0
  7  9  1  0  0  0  0
  3  9  1  0  0  0  0
  9 10  1  6  0  0  0
M  END
> <DRUGBANK_ID>
DB04545

> <DRUG_GROUPS>
experimental

> <GENERIC_NAME>
(3r,4r,5r)-5-(Hydroxymethyl)Piperidine-3,4-Diol

> <CHEMICAL_FORMULA>
C6H13NO3

> <MOLECULAR_WEIGHT>
147.1723

> <EXACT_MASS>
147.089543287

> <IUPAC_NAME>
(3R,4R,5R)-5-(hydroxymethyl)piperidine-3,4-diol

> <IUPAC_TRADITIONAL_NAME>
(3R,4R,5R)-5-(hydroxymethyl)piperidine-3,4-diol

> <INCHI_IDENTIFIER>
InChI=1S/C6H13NO3/c8-3-4-1-7-2-5(9)6(4)10/h4-10H,1-3H2/t4-,5-,6-/m1/s1

> <INCHI_KEY>
InChIKey=QPYJXFZUIJOGNX-HSUXUTPPSA-N

> <SMILES>
OC[C@H]1CNC[C@@H](O)[C@@H]1O

> <JCHEM_ACCEPTOR_COUNT>
4

> <JCHEM_DONOR_COUNT>
4

> <JCHEM_ACIDIC_PKA>
13.52

> <JCHEM_BASIC_PKA>
8.8

> <JCHEM_PHYSIOLOGICAL_CHARGE>
1

> <ALOGPS_LOGP>
-1.7

> <JCHEM_LOGP>
-2.3

> <ALOGPS_LOGS>
0.56

> <JCHEM_POLARIZABILITY>
14.68

> <JCHEM_POLAR_SURFACE_AREA>
72.72

> <JCHEM_REFRACTIVITY>
35.5

> <JCHEM_ROTATABLE_BOND_COUNT>
1

> <ALOGPS_SOLUBILITY>
5.38e+02 g/l __ 

$$$$
