
  Mrv0541 02231217322D          

 15 14  0  0  1  0            999 V2000
    9.9513    4.0954    0.0000 N   0  0  0  0  0  0  0  0  0  0  0  0
    9.9513    3.2704    0.0000 C   0  0  1  0  0  0  0  0  0  0  0  0
    9.2368    2.8579    0.0000 C   0  0  0  0  0  0  0  0  0  0  0  0
    8.5224    3.2704    0.0000 C   0  0  0  0  0  0  0  0  0  0  0  0
    7.8079    2.8579    0.0000 C   0  0  0  0  0  0  0  0  0  0  0  0
    7.0934    3.2704    0.0000 N   0  0  0  0  0  0  0  0  0  0  0  0
    6.3789    2.8579    0.0000 C   0  0  0  0  0  0  0  0  0  0  0  0
    6.3789    2.0329    0.0000 N   0  0  0  0  0  0  0  0  0  0  0  0
    5.6645    3.2704    0.0000 N   0  0  0  0  0  0  0  0  0  0  0  0
    4.9500    2.8579    0.0000 N   0  3  0  0  0  0  0  0  0  0  0  0
    4.2355    3.2704    0.0000 O   0  5  0  0  0  0  0  0  0  0  0  0
    4.9500    2.0329    0.0000 O   0  0  0  0  0  0  0  0  0  0  0  0
   10.6658    2.8579    0.0000 C   0  0  0  0  0  0  0  0  0  0  0  0
   11.3802    3.2704    0.0000 O   0  0  0  0  0  0  0  0  0  0  0  0
   10.6658    2.0329    0.0000 O   0  0  0  0  0  0  0  0  0  0  0  0
  2  1  1  6  0  0  0
  2  3  1  0  0  0  0
  3  4  1  0  0  0  0
  4  5  1  0  0  0  0
  5  6  1  0  0  0  0
  6  7  1  0  0  0  0
  7  8  2  0  0  0  0
  7  9  1  0  0  0  0
  9 10  1  0  0  0  0
 10 11  1  0  0  0  0
 10 12  2  0  0  0  0
  2 13  1  0  0  0  0
 13 14  1  0  0  0  0
 13 15  2  0  0  0  0
M  END
> <DRUGBANK_ID>
DB04223

> <DRUG_GROUPS>
experimental

> <GENERIC_NAME>
Nitroarginine

> <SYNONYMS>


> <CHEMICAL_FORMULA>
C6H13N5O4

> <MOLECULAR_WEIGHT>
219.1985

> <EXACT_MASS>
219.096753929

> <IUPAC_NAME>
(2S)-2-amino-5-(1-nitrocarbamimidamido)pentanoic acid

> <IUPAC_TRADITIONAL_NAME>
nitroarginine

> <INCHI_IDENTIFIER>
InChI=1S/C6H13N5O4/c7-4(5(12)13)2-1-3-9-6(8)10-11(14)15/h4H,1-3,7H2,(H,12,13)(H3,8,9,10)/t4-/m0/s1

> <INCHI_KEY>
InChIKey=MRAUNPAHJZDYCK-BYPYZUCNSA-N

> <SMILES>
N[C@@H](CCCNC(=N)N[N+]([O-])=O)C(O)=O

> <JCHEM_ACCEPTOR_COUNT>
8

> <JCHEM_DONOR_COUNT>
5

> <JCHEM_ACIDIC_PKA>
1.83

> <JCHEM_BASIC_PKA>
9.16

> <JCHEM_PHYSIOLOGICAL_CHARGE>
0

> <ALOGPS_LOGP>
-2.8

> <JCHEM_LOGP>
-3.4

> <ALOGPS_LOGS>
-2.4

> <JCHEM_POLARIZABILITY>
20.32

> <JCHEM_POLAR_SURFACE_AREA>
157.05

> <JCHEM_REFRACTIVITY>
60.91

> <JCHEM_ROTATABLE_BOND_COUNT>
6

> <ALOGPS_SOLUBILITY>
8.74e-01 g/l __ 

$$$$
