007
  Mrv0541 02231217462D          

 13 14  0  0  0  0            999 V2000
    0.9648    0.2262    0.0000 C   0  0  0  0  0  0  0  0  0  0  0  0
    1.6322   -0.2587    0.0000 C   0  0  0  0  0  0  0  0  0  0  0  0
    0.2973   -0.2587    0.0000 C   0  0  0  0  0  0  0  0  0  0  0  0
    1.3773   -1.0434    0.0000 C   0  0  0  0  0  0  0  0  0  0  0  0
    0.5523   -1.0434    0.0000 C   0  0  0  0  0  0  0  0  0  0  0  0
   -0.2611    0.3486    0.0000 C   0  0  0  0  0  0  0  0  0  0  0  0
   -1.0662    0.1686    0.0000 C   0  0  0  0  0  0  0  0  0  0  0  0
   -0.0144    1.1358    0.0000 C   0  0  0  0  0  0  0  0  0  0  0  0
   -1.6247    0.7759    0.0000 C   0  0  0  0  0  0  0  0  0  0  0  0
   -0.5728    1.7431    0.0000 C   0  0  0  0  0  0  0  0  0  0  0  0
   -1.3780    1.5631    0.0000 C   0  0  0  0  0  0  0  0  0  0  0  0
   -0.5114   -0.4218    0.0000 C   0  0  0  0  0  0  0  0  0  0  0  0
   -0.7745   -1.2037    0.0000 N   0  0  0  0  0  0  0  0  0  0  0  0
  1  2  1  0  0  0  0
  1  3  1  0  0  0  0
  2  4  1  0  0  0  0
  3  5  1  0  0  0  0
  3  6  1  0  0  0  0
  3 12  1  0  0  0  0
  4  5  1  0  0  0  0
  6  7  1  0  0  0  0
  6  8  2  0  0  0  0
  7  9  2  0  0  0  0
  8 10  1  0  0  0  0
  9 11  1  0  0  0  0
 10 11  2  0  0  0  0
 12 13  1  0  0  0  0
M  END
> <DRUGBANK_ID>
DB04577

> <DRUG_GROUPS>
experimental

> <GENERIC_NAME>
1-(1-phenylcyclopentyl)methylamine

> <SYNONYMS>
1-(1-PHENYLCYCLOPENTYL)METHANAMINE; 1-Phenylcyclopentanemethylamine

> <CHEMICAL_FORMULA>
C12H17N

> <MOLECULAR_WEIGHT>
175.2701

> <EXACT_MASS>
175.136099549

> <IUPAC_NAME>
(1-phenylcyclopentyl)methanamine

> <IUPAC_TRADITIONAL_NAME>
(1-phenylcyclopentyl)methanamine

> <INCHI_IDENTIFIER>
InChI=1S/C12H17N/c13-10-12(8-4-5-9-12)11-6-2-1-3-7-11/h1-3,6-7H,4-5,8-10,13H2

> <INCHI_KEY>
InChIKey=SJWOFBVBNFLWLP-UHFFFAOYSA-N

> <SMILES>
NCC1(CCCC1)C1=CC=CC=C1

> <JCHEM_ACCEPTOR_COUNT>
1

> <JCHEM_DONOR_COUNT>
1

> <JCHEM_BASIC_PKA>
9.47

> <JCHEM_PHYSIOLOGICAL_CHARGE>
1

> <ALOGPS_LOGP>
2.88

> <JCHEM_LOGP>
2.56

> <ALOGPS_LOGS>
-3.5

> <JCHEM_POLARIZABILITY>
21.01

> <JCHEM_POLAR_SURFACE_AREA>
26.02

> <JCHEM_REFRACTIVITY>
55.56

> <JCHEM_ROTATABLE_BOND_COUNT>
2

> <ALOGPS_SOLUBILITY>
6.00e-02 g/l __ 

$$$$
