
  Mrv0541 02231217572D          

 33 36  0  0  1  0            999 V2000
    1.6731    0.8205    0.0000 F   0  0  0  0  0  0  0  0  0  0  0  0
    4.5310    0.8205    0.0000 F   0  0  0  0  0  0  0  0  0  0  0  0
    2.6896   -2.9240    0.0000 O   0  0  0  0  0  0  0  0  0  0  0  0
    3.6639   -4.3451    0.0000 O   0  0  0  0  0  0  0  0  0  0  0  0
    1.6500   -1.8844    0.0000 O   0  0  0  0  0  0  0  0  0  0  0  0
    2.3876    4.5331    0.0000 O   0  0  0  0  0  0  0  0  0  0  0  0
    4.5310    4.1206    0.0000 O   0  0  0  0  0  0  0  0  0  0  0  0
    4.5310    5.7706    0.0000 O   0  0  0  0  0  0  0  0  0  0  0  0
    5.2288   -5.7971    0.0000 O   0  0  0  0  0  0  0  0  0  0  0  0
    3.1021    3.2956    0.0000 N   0  0  0  0  0  0  0  0  0  0  0  0
    3.1021   -1.6545    0.0000 N   0  0  0  0  0  0  0  0  0  0  0  0
    4.9739   -5.0126    0.0000 N   0  0  0  0  0  0  0  0  0  0  0  0
    3.8166    2.0581    0.0000 C   0  0  0  0  0  0  0  0  0  0  0  0
    3.8166    2.8831    0.0000 C   0  0  0  0  0  0  0  0  0  0  0  0
    3.1021    1.6456    0.0000 C   0  0  0  0  0  0  0  0  0  0  0  0
    3.5146   -2.9240    0.0000 C   0  0  0  0  0  0  0  0  0  0  0  0
    3.7695   -2.1394    0.0000 C   0  0  0  0  0  0  0  0  0  0  0  0
    2.3876    2.8831    0.0000 C   0  0  0  0  0  0  0  0  0  0  0  0
    3.1021    0.8205    0.0000 C   0  0  0  0  0  0  0  0  0  0  0  0
    2.3876    2.0581    0.0000 C   0  0  0  0  0  0  0  0  0  0  0  0
    3.1021   -0.8295    0.0000 C   0  0  0  0  0  0  0  0  0  0  0  0
    3.9995   -3.5914    0.0000 C   0  0  0  0  0  0  0  0  0  0  0  0
    2.4347   -2.1394    0.0000 C   0  0  0  0  0  0  0  0  0  0  0  0
    3.1021    4.1206    0.0000 C   0  0  0  0  0  0  0  0  0  0  0  0
    2.3876    0.4080    0.0000 C   0  0  0  0  0  0  0  0  0  0  0  0
    3.8166    0.4080    0.0000 C   0  0  0  0  0  0  0  0  0  0  0  0
    2.3876   -0.4170    0.0000 C   0  0  0  0  0  0  0  0  0  0  0  0
    3.8166   -0.4170    0.0000 C   0  0  0  0  0  0  0  0  0  0  0  0
    3.8166    4.5331    0.0000 C   0  0  0  0  0  0  0  0  0  0  0  0
    3.8166    5.3581    0.0000 C   0  0  0  0  0  0  0  0  0  0  0  0
    4.1489   -5.0126    0.0000 C   0  0  0  0  0  0  0  0  0  0  0  0
    3.8939   -5.7971    0.0000 C   0  0  0  0  0  0  0  0  0  0  0  0
    4.5614   -6.2821    0.0000 C   0  0  0  0  0  0  0  0  0  0  0  0
  1 25  1  0  0  0  0
  2 26  1  0  0  0  0
  3 16  1  0  0  0  0
  3 23  1  0  0  0  0
  4 22  1  0  0  0  0
  4 31  1  0  0  0  0
  5 23  2  0  0  0  0
  6 24  2  0  0  0  0
  7 29  1  0  0  0  0
  8 30  1  0  0  0  0
  9 12  1  0  0  0  0
  9 33  1  0  0  0  0
 10 14  1  0  0  0  0
 10 18  1  0  0  0  0
 10 24  1  0  0  0  0
 11 17  1  0  0  0  0
 11 21  1  0  0  0  0
 11 23  1  0  0  0  0
 12 31  2  0  0  0  0
 13 14  1  0  0  0  0
 13 15  1  0  0  0  0
 15 19  1  0  0  0  0
 15 20  2  0  0  0  0
 16 17  1  0  0  0  0
 16 22  1  0  0  0  0
 18 20  1  0  0  0  0
 19 25  2  0  0  0  0
 19 26  1  0  0  0  0
 21 27  2  0  0  0  0
 21 28  1  0  0  0  0
 24 29  1  0  0  0  0
 25 27  1  0  0  0  0
 26 28  2  0  0  0  0
 29 30  1  0  0  0  0
 31 32  1  0  0  0  0
 32 33  2  0  0  0  0
M  END
> <DRUGBANK_ID>
DB04850

> <DRUG_GROUPS>
investigational

> <GENERIC_NAME>
AZD2563

> <BRANDS>


> <CHEMICAL_FORMULA>
C21H21F2N3O7

> <MOLECULAR_WEIGHT>
465.4041

> <EXACT_MASS>
465.134756451

> <IUPAC_NAME>
3-{4-[1-(2,3-dihydroxypropanoyl)-1,2,3,6-tetrahydropyridin-4-yl]-3,5-difluorophenyl}-5-[(1,2-oxazol-3-yloxy)methyl]-1,3-oxazolidin-2-one

> <IUPAC_TRADITIONAL_NAME>
3-{4-[1-(2,3-dihydroxypropanoyl)-3,6-dihydro-2H-pyridin-4-yl]-3,5-difluorophenyl}-5-[(1,2-oxazol-3-yloxy)methyl]-1,3-oxazolidin-2-one

> <INCHI_IDENTIFIER>
InChI=1S/C21H21F2N3O7/c22-15-7-13(26-9-14(33-21(26)30)11-31-18-3-6-32-24-18)8-16(23)19(15)12-1-4-25(5-2-12)20(29)17(28)10-27/h1,3,6-8,14,17,27-28H,2,4-5,9-11H2

> <INCHI_KEY>
InChIKey=HBUJYEUPIIJJOS-UHFFFAOYSA-N

> <SMILES>
OCC(O)C(=O)N1CCC(=CC1)C1=C(F)C=C(C=C1F)N1CC(COC2=NOC=C2)OC1=O

> <JCHEM_ACCEPTOR_COUNT>
7

> <JCHEM_DONOR_COUNT>
2

> <JCHEM_ACIDIC_PKA>
12.4

> <JCHEM_BASIC_PKA>
-1.8

> <JCHEM_PHYSIOLOGICAL_CHARGE>
0

> <ALOGPS_LOGP>
1.06

> <JCHEM_LOGP>
0.78

> <ALOGPS_LOGS>
-2.8

> <JCHEM_POLARIZABILITY>
44.3

> <JCHEM_POLAR_SURFACE_AREA>
125.57

> <JCHEM_REFRACTIVITY>
109.52

> <JCHEM_ROTATABLE_BOND_COUNT>
7

> <ALOGPS_SOLUBILITY>
7.10e-01 g/l __ 

$$$$
