
  Mrv0541 02231217282D          

 12 12  0  0  1  0            999 V2000
    1.4652   -0.8227    0.0000 C   0  0  0  0  0  0  0  0  0  0  0  0
    0.9803   -0.1553    0.0000 N   0  0  0  0  0  0  0  0  0  0  0  0
    0.1553   -0.1553    0.0000 C   0  0  0  0  0  0  0  0  0  0  0  0
   -0.0997    0.6294    0.0000 N   0  0  0  0  0  0  0  0  0  0  0  0
    0.5678    1.1143    0.0000 C   0  0  0  0  0  0  0  0  0  0  0  0
    0.5678    1.9393    0.0000 C   0  0  0  0  0  0  0  0  0  0  0  0
   -0.1467    2.3518    0.0000 C   0  0  2  0  0  0  0  0  0  0  0  0
   -0.8612    1.9393    0.0000 N   0  0  0  0  0  0  0  0  0  0  0  0
   -0.1467    3.1768    0.0000 C   0  0  0  0  0  0  0  0  0  0  0  0
   -0.8612    3.5893    0.0000 O   0  0  0  0  0  0  0  0  0  0  0  0
    0.5678    3.5893    0.0000 O   0  0  0  0  0  0  0  0  0  0  0  0
    1.2352    0.6294    0.0000 C   0  0  0  0  0  0  0  0  0  0  0  0
  1  2  1  0  0  0  0
  2  3  1  0  0  0  0
  3  4  2  0  0  0  0
  4  5  1  0  0  0  0
  5  6  1  0  0  0  0
  6  7  1  0  0  0  0
  7  8  1  6  0  0  0
  7  9  1  0  0  0  0
  9 10  1  0  0  0  0
  9 11  2  0  0  0  0
  5 12  2  0  0  0  0
  2 12  1  0  0  0  0
M  END
> <DRUGBANK_ID>
DB04151

> <DRUG_GROUPS>
experimental

> <GENERIC_NAME>
4-Methyl-Histidine

> <CHEMICAL_FORMULA>
C7H11N3O2

> <MOLECULAR_WEIGHT>
169.1811

> <EXACT_MASS>
169.085126611

> <IUPAC_NAME>
(2S)-2-amino-3-(1-methyl-1H-imidazol-4-yl)propanoic acid

> <IUPAC_TRADITIONAL_NAME>
4-methyl-histidine

> <INCHI_IDENTIFIER>
InChI=1S/C7H11N3O2/c1-10-3-5(9-4-10)2-6(8)7(11)12/h3-4,6H,2,8H2,1H3,(H,11,12)/t6-/m0/s1

> <INCHI_KEY>
InChIKey=BRMWTNUJHUMWMS-LURJTMIESA-N

> <SMILES>
CN1C=NC(C[C@H](N)C(O)=O)=C1

> <JCHEM_ACCEPTOR_COUNT>
4

> <JCHEM_DONOR_COUNT>
2

> <JCHEM_ACIDIC_PKA>
1.96

> <JCHEM_BASIC_PKA>
9.25

> <JCHEM_PHYSIOLOGICAL_CHARGE>
0

> <ALOGPS_LOGP>
-3

> <JCHEM_LOGP>
-3.1

> <ALOGPS_LOGS>
-1.4

> <JCHEM_POLARIZABILITY>
17.11

> <JCHEM_POLAR_SURFACE_AREA>
81.14

> <JCHEM_REFRACTIVITY>
42.39

> <JCHEM_ROTATABLE_BOND_COUNT>
3

> <ALOGPS_SOLUBILITY>
6.93e+00 g/l __ 

$$$$
