4840
  Mrv0541 02231217572D          

 13 14  0  0  0  0            999 V2000
    3.5220    0.1136    0.0000 N   0  0  0  0  0  0  0  0  0  0  0  0
    2.0930    0.1136    0.0000 N   0  0  0  0  0  0  0  0  0  0  0  0
    2.8075   -1.1239    0.0000 N   0  0  0  0  0  0  0  0  0  0  0  0
    4.2364    1.3511    0.0000 C   0  0  0  0  0  0  0  0  0  0  0  0
    3.5220    0.9386    0.0000 C   0  0  0  0  0  0  0  0  0  0  0  0
    4.2364   -0.2989    0.0000 C   0  0  0  0  0  0  0  0  0  0  0  0
    4.9509    0.9386    0.0000 C   0  0  0  0  0  0  0  0  0  0  0  0
    4.9509    0.1136    0.0000 C   0  0  0  0  0  0  0  0  0  0  0  0
    5.6884    1.3797    0.0000 C   0  0  0  0  0  0  0  0  0  0  0  0
    5.6884   -0.3275    0.0000 C   0  0  0  0  0  0  0  0  0  0  0  0
    2.8075   -0.2989    0.0000 C   0  0  0  0  0  0  0  0  0  0  0  0
    6.4359    0.9558    0.0000 C   0  0  0  0  0  0  0  0  0  0  0  0
    6.4359    0.0964    0.0000 C   0  0  0  0  0  0  0  0  0  0  0  0
  1  5  1  0  0  0  0
  1  6  1  0  0  0  0
  1 11  1  0  0  0  0
  2 11  1  0  0  0  0
  3 11  2  0  0  0  0
  4  5  1  0  0  0  0
  4  7  1  0  0  0  0
  6  8  1  0  0  0  0
  7  8  1  0  0  0  0
  7  9  2  0  0  0  0
  8 10  2  0  0  0  0
  9 12  1  0  0  0  0
 10 13  1  0  0  0  0
 12 13  2  0  0  0  0
M  END
> <DRUGBANK_ID>
DB04840

> <DRUG_GROUPS>
approved

> <GENERIC_NAME>
Debrisoquin

> <SYNONYMS>
Debrisochinum; Debrisoquina; Debrisoquine; Debrisoquinum; Isocaramidine

> <SALTS>
Debrisoquin sulfate

> <BRANDS>
Declinax

> <CHEMICAL_FORMULA>
C10H13N3

> <MOLECULAR_WEIGHT>
175.2303

> <EXACT_MASS>
175.110947431

> <IUPAC_NAME>
1,2,3,4-tetrahydroisoquinoline-2-carboximidamide

> <IUPAC_TRADITIONAL_NAME>
debrisoquin

> <INCHI_IDENTIFIER>
InChI=1S/C10H13N3/c11-10(12)13-6-5-8-3-1-2-4-9(8)7-13/h1-4H,5-7H2,(H3,11,12)

> <INCHI_KEY>
InChIKey=JWPGJSVJDAJRLW-UHFFFAOYSA-N

> <SMILES>
NC(=N)N1CCC2=CC=CC=C2C1

> <JCHEM_ACCEPTOR_COUNT>
3

> <JCHEM_DONOR_COUNT>
2

> <JCHEM_BASIC_PKA>
12.47

> <JCHEM_PHYSIOLOGICAL_CHARGE>
1

> <ALOGPS_LOGP>
0.58

> <JCHEM_LOGP>
1.07

> <ALOGPS_LOGS>
-2.3

> <JCHEM_POLARIZABILITY>
19.48

> <JCHEM_POLAR_SURFACE_AREA>
53.11

> <JCHEM_REFRACTIVITY>
63.85

> <JCHEM_ROTATABLE_BOND_COUNT>
0

> <ALOGPS_SOLUBILITY>
8.42e-01 g/l __ 

$$$$
