
  Mrv0541 02231217262D          

  8  8  0  0  0  0            999 V2000
    0.0000    2.4750    0.0000 O   0  0  0  0  0  0  0  0  0  0  0  0
    0.7145    2.0625    0.0000 C   0  0  0  0  0  0  0  0  0  0  0  0
    0.7145    1.2375    0.0000 N   0  0  0  0  0  0  0  0  0  0  0  0
    1.4289    0.8250    0.0000 C   0  0  0  0  0  0  0  0  0  0  0  0
    1.4289    0.0000    0.0000 C   0  0  0  0  0  0  0  0  0  0  0  0
    0.7145   -0.4125    0.0000 C   0  0  0  0  0  0  0  0  0  0  0  0
    0.0000    0.0000    0.0000 C   0  0  0  0  0  0  0  0  0  0  0  0
    0.0000    0.8250    0.0000 C   0  0  0  0  0  0  0  0  0  0  0  0
  1  2  2  0  0  0  0
  2  3  1  0  0  0  0
  3  4  1  0  0  0  0
  4  5  1  0  0  0  0
  5  6  1  0  0  0  0
  6  7  1  0  0  0  0
  7  8  1  0  0  0  0
  3  8  1  0  0  0  0
M  END
> <DRUGBANK_ID>
DB04113

> <DRUG_GROUPS>
experimental

> <GENERIC_NAME>
N-Formylpiperidine

> <CHEMICAL_FORMULA>
C6H11NO

> <MOLECULAR_WEIGHT>
113.1576

> <EXACT_MASS>
113.084063979

> <IUPAC_NAME>
piperidine-1-carbaldehyde

> <IUPAC_TRADITIONAL_NAME>
N-formylpiperidine

> <INCHI_IDENTIFIER>
InChI=1S/C6H11NO/c8-6-7-4-2-1-3-5-7/h6H,1-5H2

> <INCHI_KEY>
InChIKey=FEWLNYSYJNLUOO-UHFFFAOYSA-N

> <SMILES>
O=CN1CCCCC1

> <JCHEM_ACCEPTOR_COUNT>
1

> <JCHEM_DONOR_COUNT>
0

> <JCHEM_BASIC_PKA>
-0.01

> <JCHEM_PHYSIOLOGICAL_CHARGE>
0

> <ALOGPS_LOGP>
0.21

> <JCHEM_LOGP>
0.22

> <ALOGPS_LOGS>
0.4

> <JCHEM_POLARIZABILITY>
12.5

> <JCHEM_POLAR_SURFACE_AREA>
20.31

> <JCHEM_REFRACTIVITY>
31.91

> <JCHEM_ROTATABLE_BOND_COUNT>
0

> <ALOGPS_SOLUBILITY>
2.82e+02 g/l __ 

$$$$
