
  Mrv0541 02231217332D          

 35 37  0  0  1  0            999 V2000
  -12.1460   -0.4125    0.0000 N   0  0  0  0  0  0  0  0  0  0  0  0
  -11.4315    0.0000    0.0000 C   0  0  0  0  0  0  0  0  0  0  0  0
  -11.4315    0.8250    0.0000 N   0  0  0  0  0  0  0  0  0  0  0  0
  -10.7171    1.2375    0.0000 C   0  0  0  0  0  0  0  0  0  0  0  0
  -10.7171    2.0625    0.0000 O   0  0  0  0  0  0  0  0  0  0  0  0
  -10.0026    0.8250    0.0000 C   0  0  0  0  0  0  0  0  0  0  0  0
   -9.2881    1.2375    0.0000 C   0  0  0  0  0  0  0  0  0  0  0  0
   -8.5737    0.8250    0.0000 C   0  0  0  0  0  0  0  0  0  0  0  0
   -7.8592    1.2375    0.0000 C   0  0  0  0  0  0  0  0  0  0  0  0
   -7.8592    2.0625    0.0000 C   0  0  1  0  0  0  0  0  0  0  0  0
   -8.5737    2.4750    0.0000 C   0  0  0  0  0  0  0  0  0  0  0  0
   -8.5737    3.3000    0.0000 O   0  0  0  0  0  0  0  0  0  0  0  0
   -9.2881    2.0625    0.0000 O   0  0  0  0  0  0  0  0  0  0  0  0
   -7.1447    2.4750    0.0000 C   0  0  0  0  0  0  0  0  0  0  0  0
   -7.1447    3.3000    0.0000 C   0  0  0  0  0  0  0  0  0  0  0  0
   -6.4302    3.7125    0.0000 C   0  0  0  0  0  0  0  0  0  0  0  0
   -5.7158    3.3000    0.0000 C   0  0  0  0  0  0  0  0  0  0  0  0
   -5.7158    2.4750    0.0000 C   0  0  0  0  0  0  0  0  0  0  0  0
   -6.4302    2.0625    0.0000 C   0  0  0  0  0  0  0  0  0  0  0  0
   -5.0013    3.7125    0.0000 C   0  0  0  0  0  0  0  0  0  0  0  0
   -5.0013    4.5375    0.0000 O   0  0  0  0  0  0  0  0  0  0  0  0
   -4.2868    3.3000    0.0000 N   0  0  0  0  0  0  0  0  0  0  0  0
   -3.5724    3.7125    0.0000 C   0  0  1  0  0  0  0  0  0  0  0  0
   -2.8579    3.3000    0.0000 C   0  0  0  0  0  0  0  0  0  0  0  0
   -2.1434    3.7125    0.0000 C   0  0  0  0  0  0  0  0  0  0  0  0
   -1.4289    3.3000    0.0000 C   0  0  0  0  0  0  0  0  0  0  0  0
   -0.7145    3.7125    0.0000 O   0  0  0  0  0  0  0  0  0  0  0  0
   -1.4289    2.4750    0.0000 O   0  0  0  0  0  0  0  0  0  0  0  0
   -3.5724    4.5375    0.0000 C   0  0  0  0  0  0  0  0  0  0  0  0
   -2.8579    4.9500    0.0000 O   0  0  0  0  0  0  0  0  0  0  0  0
   -4.2868    4.9500    0.0000 O   0  0  0  0  0  0  0  0  0  0  0  0
   -8.5737    0.0000    0.0000 C   0  0  0  0  0  0  0  0  0  0  0  0
   -9.2881   -0.4125    0.0000 C   0  0  0  0  0  0  0  0  0  0  0  0
  -10.0026    0.0000    0.0000 C   0  0  0  0  0  0  0  0  0  0  0  0
  -10.7171   -0.4125    0.0000 N   0  0  0  0  0  0  0  0  0  0  0  0
  1  2  1  0  0  0  0
  2  3  2  0  0  0  0
  3  4  1  0  0  0  0
  4  5  1  0  0  0  0
  4  6  2  0  0  0  0
  6  7  1  0  0  0  0
  7  8  2  0  0  0  0
  8  9  1  0  0  0  0
  9 10  1  0  0  0  0
 10 11  1  0  0  0  0
 11 12  1  0  0  0  0
 11 13  2  0  0  0  0
 10 14  1  1  0  0  0
 14 15  2  0  0  0  0
 15 16  1  0  0  0  0
 16 17  2  0  0  0  0
 17 18  1  0  0  0  0
 18 19  2  0  0  0  0
 14 19  1  0  0  0  0
 17 20  1  0  0  0  0
 20 21  2  0  0  0  0
 20 22  1  0  0  0  0
 23 22  1  6  0  0  0
 23 24  1  0  0  0  0
 24 25  1  0  0  0  0
 25 26  1  0  0  0  0
 26 27  1  0  0  0  0
 26 28  2  0  0  0  0
 23 29  1  0  0  0  0
 29 30  1  0  0  0  0
 29 31  2  0  0  0  0
  8 32  1  0  0  0  0
 32 33  2  0  0  0  0
 33 34  1  0  0  0  0
  6 34  1  0  0  0  0
 34 35  2  0  0  0  0
  2 35  1  0  0  0  0
M  END
> <DRUGBANK_ID>
DB04264

> <DRUG_GROUPS>
experimental

> <GENERIC_NAME>
(10R)-10-Formyl-5,8,10-Trideazafolic Acid

> <CHEMICAL_FORMULA>
C23H22N4O8

> <MOLECULAR_WEIGHT>
482.4428

> <EXACT_MASS>
482.1437637

> <IUPAC_NAME>
(2S)-2-({4-[(1R)-2-(2-amino-4-hydroxyquinazolin-6-yl)-1-carboxyethyl]phenyl}formamido)pentanedioic acid

> <IUPAC_TRADITIONAL_NAME>
(2S)-2-({4-[(1R)-2-(2-amino-4-hydroxyquinazolin-6-yl)-1-carboxyethyl]phenyl}formamido)pentanedioic acid

> <INCHI_IDENTIFIER>
InChI=1S/C23H22N4O8/c24-23-26-16-6-1-11(10-15(16)20(31)27-23)9-14(21(32)33)12-2-4-13(5-3-12)19(30)25-17(22(34)35)7-8-18(28)29/h1-6,10,14,17H,7-9H2,(H,25,30)(H,28,29)(H,32,33)(H,34,35)(H3,24,26,27,31)/t14-,17+/m1/s1

> <INCHI_KEY>
InChIKey=DAOQLLQRJAXMGY-PBHICJAKSA-N

> <SMILES>
NC1=NC(O)=C2C=C(C[C@@H](C(O)=O)C3=CC=C(C=C3)C(=O)N[C@@H](CCC(O)=O)C(O)=O)C=CC2=N1

> <JCHEM_ACCEPTOR_COUNT>
11

> <JCHEM_DONOR_COUNT>
6

> <JCHEM_ACIDIC_PKA>
3.11

> <JCHEM_BASIC_PKA>
2.03

> <JCHEM_PHYSIOLOGICAL_CHARGE>
-3

> <ALOGPS_LOGP>
1.08

> <JCHEM_LOGP>
1.72

> <ALOGPS_LOGS>
-3.8

> <JCHEM_POLARIZABILITY>
47

> <JCHEM_POLAR_SURFACE_AREA>
213.03

> <JCHEM_REFRACTIVITY>
121.66

> <JCHEM_ROTATABLE_BOND_COUNT>
10

> <ALOGPS_SOLUBILITY>
7.16e-02 g/l __ 

$$$$
