
  Mrv0541 02231217582D          

 30 30  0  0  1  0            999 V2000
    1.6500   -3.5063    0.0000 Cl   0  0  0  0  0  0  0  0  0  0  0  0
    3.0791   -4.3313    0.0000 Cl   0  0  0  0  0  0  0  0  0  0  0  0
    5.2224    0.2063    0.0000 O    0  0  0  0  0  0  0  0  0  0  0  0
    3.0791    3.9188    0.0000 O    0  0  0  0  0  0  0  0  0  0  0  0
    2.3645   -0.6188    0.0000 O    0  0  0  0  0  0  0  0  0  0  0  0
    2.3645    2.6813    0.0000 O    0  0  0  0  0  0  0  0  0  0  0  0
    1.6500    1.4438    0.0000 O    0  0  0  0  0  0  0  0  0  0  0  0
    4.5080    1.4438    0.0000 N    0  0  0  0  0  0  0  0  0  0  0  0
    3.7935   -0.6188    0.0000 N    0  0  0  0  0  0  0  0  0  0  0  0
    5.2224    1.8563    0.0000 C    0  0  0  0  0  0  0  0  0  0  0  0
    3.7935    0.2063    0.0000 C    0  0  1  0  0  0  0  0  0  0  0  0
    5.2224    2.6813    0.0000 C    0  0  0  0  0  0  0  0  0  0  0  0
    3.7935    1.8563    0.0000 C    0  0  0  0  0  0  0  0  0  0  0  0
    4.5080    0.6188    0.0000 C    0  0  0  0  0  0  0  0  0  0  0  0
    3.0791    0.6188    0.0000 C    0  0  0  0  0  0  0  0  0  0  0  0
    5.9370    3.0938    0.0000 C    0  0  0  0  0  0  0  0  0  0  0  0
    3.7935    2.6813    0.0000 C    0  0  0  0  0  0  0  0  0  0  0  0
    5.9370    3.9188    0.0000 C    0  0  0  0  0  0  0  0  0  0  0  0
    3.0791    1.4438    0.0000 C    0  0  0  0  0  0  0  0  0  0  0  0
    3.0791    3.0938    0.0000 C    0  0  0  0  0  0  0  0  0  0  0  0
    6.6515    4.3313    0.0000 C    0  0  0  0  0  0  0  0  0  0  0  0
    3.0791   -1.0313    0.0000 C    0  0  0  0  0  0  0  0  0  0  0  0
    2.3645    1.8563    0.0000 C    0  0  0  0  0  0  0  0  0  0  0  0
    3.0791   -1.8563    0.0000 C    0  0  0  0  0  0  0  0  0  0  0  0
    2.3645   -2.2688    0.0000 C    0  0  0  0  0  0  0  0  0  0  0  0
    3.7935   -2.2688    0.0000 C    0  0  0  0  0  0  0  0  0  0  0  0
    2.3645    4.3313    0.0000 C    0  0  0  0  0  0  0  0  0  0  0  0
    2.3645   -3.0938    0.0000 C    0  0  0  0  0  0  0  0  0  0  0  0
    3.7935   -3.0938    0.0000 C    0  0  0  0  0  0  0  0  0  0  0  0
    3.0791   -3.5063    0.0000 C    0  0  0  0  0  0  0  0  0  0  0  0
  1 28  1  0  0  0  0
  2 30  1  0  0  0  0
  3 14  2  0  0  0  0
  4 20  1  0  0  0  0
  4 27  1  0  0  0  0
  5 22  2  0  0  0  0
  6 23  1  0  0  0  0
  7 23  2  0  0  0  0
  8 10  1  0  0  0  0
  8 13  1  0  0  0  0
  8 14  1  0  0  0  0
 11  9  1  6  0  0  0
  9 22  1  0  0  0  0
 10 12  1  0  0  0  0
 11 14  1  0  0  0  0
 11 15  1  0  0  0  0
 12 16  1  0  0  0  0
 13 17  1  0  0  0  0
 15 19  1  0  0  0  0
 16 18  1  0  0  0  0
 17 20  1  0  0  0  0
 18 21  1  0  0  0  0
 19 23  1  0  0  0  0
 22 24  1  0  0  0  0
 24 25  2  0  0  0  0
 24 26  1  0  0  0  0
 25 28  1  0  0  0  0
 26 29  2  0  0  0  0
 28 30  2  0  0  0  0
 29 30  1  0  0  0  0
M  END
> <DRUGBANK_ID>
DB04856

> <DRUG_GROUPS>
investigational

> <GENERIC_NAME>
Dexloxiglumide

> <SYNONYMS>


> <CHEMICAL_FORMULA>
C21H30Cl2N2O5

> <MOLECULAR_WEIGHT>
461.379

> <EXACT_MASS>
460.153177494

> <IUPAC_NAME>
(4R)-4-[(3,4-dichlorophenyl)formamido]-4-[(3-methoxypropyl)(pentyl)carbamoyl]butanoic acid

> <IUPAC_TRADITIONAL_NAME>
dexloxiglumide

> <INCHI_IDENTIFIER>
InChI=1S/C21H30Cl2N2O5/c1-3-4-5-11-25(12-6-13-30-2)21(29)18(9-10-19(26)27)24-20(28)15-7-8-16(22)17(23)14-15/h7-8,14,18H,3-6,9-13H2,1-2H3,(H,24,28)(H,26,27)/t18-/m1/s1

> <INCHI_KEY>
InChIKey=QNQZBKQEIFTHFZ-GOSISDBHSA-N

> <SMILES>
CCCCCN(CCCOC)C(=O)[C@@H](CCC(O)=O)NC(=O)C1=CC(Cl)=C(Cl)C=C1

> <JCHEM_ACCEPTOR_COUNT>
5

> <JCHEM_DONOR_COUNT>
2

> <JCHEM_ACIDIC_PKA>
4.05

> <JCHEM_BASIC_PKA>
-1

> <JCHEM_PHYSIOLOGICAL_CHARGE>
-1

> <ALOGPS_LOGP>
3.23

> <JCHEM_LOGP>
3.37

> <ALOGPS_LOGS>
-4.9

> <JCHEM_POLARIZABILITY>
47.88

> <JCHEM_POLAR_SURFACE_AREA>
95.94

> <JCHEM_REFRACTIVITY>
117.01

> <JCHEM_ROTATABLE_BOND_COUNT>
14

> <ALOGPS_SOLUBILITY>
5.55e-03 g/l __ 

$$$$
