
  Mrv0541 02231217272D          

 37 42  0  0  1  0            999 V2000
    2.1841   -4.3555    0.0000 O   0  0  0  0  0  0  0  0  0  0  0  0
    2.0126   -3.5486    0.0000 O   0  0  0  0  0  0  0  0  0  0  0  0
    2.6257   -2.9965    0.0000 C   0  0  1  0  0  0  0  0  0  0  0  0
    2.0126   -2.4445    0.0000 C   0  0  0  0  0  0  0  0  0  0  0  0
    1.2280   -2.6994    0.0000 C   0  0  0  0  0  0  0  0  0  0  0  0
    1.0564   -3.5064    0.0000 C   0  0  0  0  0  0  0  0  0  0  0  0
    0.2718   -3.7613    0.0000 C   0  0  0  0  0  0  0  0  0  0  0  0
   -0.3413   -3.2093    0.0000 C   0  0  0  0  0  0  0  0  0  0  0  0
   -1.1259   -3.4643    0.0000 C   0  0  0  0  0  0  0  0  0  0  0  0
   -1.7390   -2.9122    0.0000 C   0  0  0  0  0  0  0  0  0  0  0  0
   -1.5675   -2.1052    0.0000 C   0  0  0  0  0  0  0  0  0  0  0  0
   -0.7828   -1.8503    0.0000 C   0  0  0  0  0  0  0  0  0  0  0  0
   -0.1697   -2.4023    0.0000 C   0  0  0  0  0  0  0  0  0  0  0  0
    0.6149   -2.1474    0.0000 C   0  0  0  0  0  0  0  0  0  0  0  0
    3.1106   -3.6640    0.0000 N   0  0  0  0  0  0  0  0  0  0  0  0
    3.8952   -3.4090    0.0000 C   0  0  0  0  0  0  0  0  0  0  0  0
    4.6097   -3.8215    0.0000 C   0  0  2  0  0  0  0  0  0  0  0  0
    4.6097   -4.6465    0.0000 C   0  0  0  0  0  0  0  0  0  0  0  0
    5.3242   -5.0590    0.0000 C   0  0  0  0  0  0  0  0  0  0  0  0
    6.0386   -4.6465    0.0000 C   0  0  0  0  0  0  0  0  0  0  0  0
    6.7531   -5.0590    0.0000 C   0  0  0  0  0  0  0  0  0  0  0  0
    6.7531   -5.8840    0.0000 C   0  0  0  0  0  0  0  0  0  0  0  0
    6.0386   -6.2965    0.0000 C   0  0  0  0  0  0  0  0  0  0  0  0
    5.3242   -5.8840    0.0000 C   0  0  0  0  0  0  0  0  0  0  0  0
    5.3242   -3.4090    0.0000 N   0  0  0  0  0  0  0  0  0  0  0  0
    5.3242   -2.5840    0.0000 C   0  0  0  0  0  0  0  0  0  0  0  0
    4.6097   -2.1715    0.0000 C   0  0  0  0  0  0  0  0  0  0  0  0
    3.8952   -2.5840    0.0000 N   0  0  0  0  0  0  0  0  0  0  0  0
    3.1106   -2.3291    0.0000 C   0  0  0  0  0  0  0  0  0  0  0  0
    2.8557   -1.5445    0.0000 O   0  0  0  0  0  0  0  0  0  0  0  0
    6.0386   -2.1715    0.0000 C   0  0  0  0  0  0  0  0  0  0  0  0
    6.0386   -1.3465    0.0000 C   0  0  0  0  0  0  0  0  0  0  0  0
    6.7531   -0.9340    0.0000 C   0  0  0  0  0  0  0  0  0  0  0  0
    7.4676   -1.3465    0.0000 C   0  0  0  0  0  0  0  0  0  0  0  0
    8.1821   -0.9340    0.0000 O   0  0  0  0  0  0  0  0  0  0  0  0
    7.4676   -2.1715    0.0000 C   0  0  0  0  0  0  0  0  0  0  0  0
    6.7531   -2.5840    0.0000 C   0  0  0  0  0  0  0  0  0  0  0  0
  1  2  1  0  0  0  0
  3  2  1  6  0  0  0
  3  4  1  1  0  0  0
  4  5  1  0  0  0  0
  5  6  2  0  0  0  0
  6  7  1  0  0  0  0
  7  8  2  0  0  0  0
  8  9  1  0  0  0  0
  9 10  2  0  0  0  0
 10 11  1  0  0  0  0
 11 12  2  0  0  0  0
 12 13  1  0  0  0  0
  8 13  1  0  0  0  0
 13 14  2  0  0  0  0
  5 14  1  0  0  0  0
  3 15  1  0  0  0  0
 15 16  2  0  0  0  0
 16 17  1  0  0  0  0
 17 18  1  1  0  0  0
 18 19  1  0  0  0  0
 19 20  2  0  0  0  0
 20 21  1  0  0  0  0
 21 22  2  0  0  0  0
 22 23  1  0  0  0  0
 23 24  2  0  0  0  0
 19 24  1  0  0  0  0
 17 25  1  0  0  0  0
 25 26  1  0  0  0  0
 26 27  2  0  0  0  0
 27 28  1  0  0  0  0
 16 28  1  0  0  0  0
 28 29  1  0  0  0  0
  3 29  1  0  0  0  0
 29 30  2  0  0  0  0
 26 31  1  0  0  0  0
 31 32  2  0  0  0  0
 32 33  1  0  0  0  0
 33 34  2  0  0  0  0
 34 35  1  0  0  0  0
 34 36  1  0  0  0  0
 36 37  2  0  0  0  0
 31 37  1  0  0  0  0
M  END
> <DRUGBANK_ID>
DB04118

> <DRUG_GROUPS>
experimental

> <GENERIC_NAME>
N-Coeleneterazine

> <CHEMICAL_FORMULA>
C30H25N3O4

> <MOLECULAR_WEIGHT>
491.5372

> <EXACT_MASS>
491.184506303

> <IUPAC_NAME>
(2R,8S)-8-benzyl-2-hydroperoxy-6-(4-hydroxyphenyl)-2-(naphthalen-2-ylmethyl)-2H,3H,7H,8H-imidazo[1,2-a]pyrazin-3-one

> <IUPAC_TRADITIONAL_NAME>
N-coeleneterazine

> <INCHI_IDENTIFIER>
InChI=1S/C30H25N3O4/c34-25-14-12-23(13-15-25)27-19-33-28(26(31-27)17-20-6-2-1-3-7-20)32-30(37-36,29(33)35)18-21-10-11-22-8-4-5-9-24(22)16-21/h1-16,19,26,31,34,36H,17-18H2/t26-,30+/m0/s1

> <INCHI_KEY>
InChIKey=OMOBIXPIGAIKCC-FREGXXQWSA-N

> <SMILES>
OO[C@@]1(CC2=CC=C3C=CC=CC3=C2)N=C2[C@H](CC3=CC=CC=C3)NC(=CN2C1=O)C1=CC=C(O)C=C1

> <JCHEM_ACCEPTOR_COUNT>
6

> <JCHEM_DONOR_COUNT>
3

> <JCHEM_ACIDIC_PKA>
9.5

> <JCHEM_BASIC_PKA>
4.21

> <JCHEM_PHYSIOLOGICAL_CHARGE>
0

> <ALOGPS_LOGP>
4.45

> <JCHEM_LOGP>
5.29

> <ALOGPS_LOGS>
-5.1

> <JCHEM_POLARIZABILITY>
53.17

> <JCHEM_POLAR_SURFACE_AREA>
94.39

> <JCHEM_REFRACTIVITY>
140.21

> <JCHEM_ROTATABLE_BOND_COUNT>
6

> <ALOGPS_SOLUBILITY>
4.04e-03 g/l __ 

$$$$
