
  Mrv0541 02231217292D          

 14 15  0  0  0  0            999 V2000
    0.0000   -1.6500    0.0000 N   0  0  0  0  0  0  0  0  0  0  0  0
    0.7145   -1.2375    0.0000 C   0  0  0  0  0  0  0  0  0  0  0  0
    0.7145   -0.4125    0.0000 C   0  0  0  0  0  0  0  0  0  0  0  0
    1.4289    0.0000    0.0000 C   0  0  0  0  0  0  0  0  0  0  0  0
    1.4289    0.8250    0.0000 N   0  0  0  0  0  0  0  0  0  0  0  0
    2.1434   -0.4125    0.0000 C   0  0  0  0  0  0  0  0  0  0  0  0
    2.8579    0.0000    0.0000 C   0  0  0  0  0  0  0  0  0  0  0  0
    2.8579    0.8250    0.0000 O   0  0  0  0  0  0  0  0  0  0  0  0
    3.5724   -0.4125    0.0000 N   0  0  0  0  0  0  0  0  0  0  0  0
    3.5724   -1.2375    0.0000 N   0  0  0  0  0  0  0  0  0  0  0  0
    2.8579   -1.6500    0.0000 C   0  0  0  0  0  0  0  0  0  0  0  0
    2.8579   -2.4750    0.0000 O   0  0  0  0  0  0  0  0  0  0  0  0
    2.1434   -1.2375    0.0000 C   0  0  0  0  0  0  0  0  0  0  0  0
    1.4289   -1.6500    0.0000 C   0  0  0  0  0  0  0  0  0  0  0  0
  1  2  1  0  0  0  0
  2  3  2  0  0  0  0
  3  4  1  0  0  0  0
  4  5  1  0  0  0  0
  4  6  2  0  0  0  0
  6  7  1  0  0  0  0
  7  8  2  0  0  0  0
  7  9  1  0  0  0  0
  9 10  1  0  0  0  0
 10 11  1  0  0  0  0
 11 12  2  0  0  0  0
 11 13  1  0  0  0  0
  6 13  1  0  0  0  0
 13 14  2  0  0  0  0
  2 14  1  0  0  0  0
M  END
> <DRUGBANK_ID>
DB04169

> <DRUG_GROUPS>
experimental

> <GENERIC_NAME>
3,5-Diaminophthalhydrazide

> <CHEMICAL_FORMULA>
C8H8N4O2

> <MOLECULAR_WEIGHT>
192.1747

> <EXACT_MASS>
192.06472552

> <IUPAC_NAME>
5,7-diamino-1,2,3,4-tetrahydrophthalazine-1,4-dione

> <IUPAC_TRADITIONAL_NAME>
5,7-diamino-2,3-dihydrophthalazine-1,4-dione

> <INCHI_IDENTIFIER>
InChI=1S/C8H8N4O2/c9-3-1-4-6(5(10)2-3)8(14)12-11-7(4)13/h1-2H,9-10H2,(H,11,13)(H,12,14)

> <INCHI_KEY>
InChIKey=BAOICLZZDLLDRL-UHFFFAOYSA-N

> <SMILES>
NC1=CC(N)=C2C(=O)NNC(=O)C2=C1

> <JCHEM_ACCEPTOR_COUNT>
4

> <JCHEM_DONOR_COUNT>
4

> <JCHEM_ACIDIC_PKA>
13.95

> <JCHEM_BASIC_PKA>
2.8

> <JCHEM_PHYSIOLOGICAL_CHARGE>
0

> <ALOGPS_LOGP>
-1.4

> <JCHEM_LOGP>
-0.89

> <ALOGPS_LOGS>
-1.7

> <JCHEM_POLARIZABILITY>
17.82

> <JCHEM_POLAR_SURFACE_AREA>
110.24

> <JCHEM_REFRACTIVITY>
52.02

> <JCHEM_ROTATABLE_BOND_COUNT>
0

> <ALOGPS_SOLUBILITY>
4.04e+00 g/l __ 

$$$$
