
  Mrv0541 02231217502D          

 65 66  0  0  1  0            999 V2000
    1.5424    1.2542    0.0000 C   0  0  0  0  0  0  0  0  0  0  0  0
    2.0503    0.5746    0.0000 O   0  0  0  0  0  0  0  0  0  0  0  0
    1.6472   -0.1247    0.0000 C   0  0  1  0  0  0  0  0  0  0  0  0
    0.9158    0.2612    0.0000 C   0  0  0  0  0  0  0  0  0  0  0  0
    0.1853    0.7245    0.0000 C   0  0  0  0  0  0  0  0  0  0  0  0
   -0.6380    0.6726    0.0000 C   0  0  0  0  0  0  0  0  0  0  0  0
   -1.0947    1.3597    0.0000 C   0  0  0  0  0  0  0  0  0  0  0  0
   -0.7279    2.0987    0.0000 C   0  0  0  0  0  0  0  0  0  0  0  0
    0.0954    2.1506    0.0000 C   0  0  0  0  0  0  0  0  0  0  0  0
    0.5521    1.4635    0.0000 C   0  0  0  0  0  0  0  0  0  0  0  0
    2.3661   -0.4865    0.0000 C   0  0  1  0  0  0  0  0  0  0  0  0
    2.4464   -1.4925    0.0000 C   0  0  0  0  0  0  0  0  0  0  0  0
    3.0539    0.0405    0.0000 C   0  0  0  0  0  0  0  0  0  0  0  0
    3.8774   -0.2637    0.0000 C   0  0  2  0  0  0  0  0  0  0  0  0
    3.9996   -1.2509    0.0000 C   0  0  0  0  0  0  0  0  0  0  0  0
    4.3831    0.3841    0.0000 C   0  0  0  0  0  0  0  0  0  0  0  0
    5.1672    0.2612    0.0000 C   0  0  0  0  0  0  0  0  0  0  0  0
    5.1941   -0.5346    0.0000 C   0  0  2  0  0  0  0  0  0  0  0  0
    4.5585   -1.0606    0.0000 N   0  0  0  0  0  0  0  0  0  0  0  0
    3.7852   -0.7731    0.0000 C   0  0  0  0  0  0  0  0  0  0  0  0
    3.0455   -0.6102    0.0000 O   0  0  0  0  0  0  0  0  0  0  0  0
    3.1496   -1.2991    0.0000 C   0  0  2  0  0  0  0  0  0  0  0  0
    3.3265   -2.1593    0.0000 C   0  0  0  0  0  0  0  0  0  0  0  0
    2.3763   -1.0116    0.0000 N   0  0  0  0  0  0  0  0  0  0  0  0
    1.7407   -1.5375    0.0000 C   0  0  0  0  0  0  0  0  0  0  0  0
    1.7613   -2.3989    0.0000 O   0  0  0  0  0  0  0  0  0  0  0  0
    0.9674   -1.2501    0.0000 C   0  0  1  0  0  0  0  0  0  0  0  0
    0.6306   -2.0394    0.0000 C   0  0  0  0  0  0  0  0  0  0  0  0
    0.7783   -0.3673    0.0000 C   0  0  1  0  0  0  0  0  0  0  0  0
    0.1316    0.1450    0.0000 N   0  0  0  0  0  0  0  0  0  0  0  0
    0.4191    0.9183    0.0000 C   0  0  0  0  0  0  0  0  0  0  0  0
   -0.2830    1.4000    0.0000 O   0  0  0  0  0  0  0  0  0  0  0  0
    1.2434    0.8839    0.0000 C   0  0  2  0  0  0  0  0  0  0  0  0
    1.2801    1.8834    0.0000 C   0  0  0  0  0  0  0  0  0  0  0  0
    1.4821    2.7435    0.0000 C   0  0  0  0  0  0  0  0  0  0  0  0
    1.2385    3.5567    0.0000 C   0  0  0  0  0  0  0  0  0  0  0  0
    2.2440    3.1145    0.0000 C   0  0  0  0  0  0  0  0  0  0  0  0
    1.9633    1.4287    0.0000 N   0  0  0  0  0  0  0  0  0  0  0  0
    2.7366    1.1412    0.0000 C   0  0  0  0  0  0  0  0  0  0  0  0
    3.4808    0.8275    0.0000 O   0  0  0  0  0  0  0  0  0  0  0  0
    3.3722    1.6672    0.0000 C   0  0  1  0  0  0  0  0  0  0  0  0
    3.4520    2.5108    0.0000 C   0  0  0  0  0  0  0  0  0  0  0  0
    4.1455    1.3797    0.0000 N   0  0  0  0  0  0  0  0  0  0  0  0
    4.7811    1.9057    0.0000 C   0  0  0  0  0  0  0  0  0  0  0  0
    4.7278    2.7521    0.0000 O   0  0  0  0  0  0  0  0  0  0  0  0
    5.5543    1.6182    0.0000 C   0  0  2  0  0  0  0  0  0  0  0  0
    5.7372    0.8567    0.0000 C   0  0  0  0  0  0  0  0  0  0  0  0
    6.1900    2.1442    0.0000 N   0  0  0  0  0  0  0  0  0  0  0  0
    6.1816    2.9909    0.0000 C   0  0  0  0  0  0  0  0  0  0  0  0
    6.9632    1.8567    0.0000 C   0  0  0  0  0  0  0  0  0  0  0  0
    7.6227    2.3891    0.0000 O   0  0  0  0  0  0  0  0  0  0  0  0
    7.1009    1.0433    0.0000 C   0  0  0  0  0  0  0  0  0  0  0  0
    7.8742    0.7558    0.0000 C   0  0  0  0  0  0  0  0  0  0  0  0
    8.0119   -0.0576    0.0000 C   0  0  0  0  0  0  0  0  0  0  0  0
    7.3763   -0.5836    0.0000 N   0  0  0  0  0  0  0  0  0  0  0  0
    6.6030   -0.2961    0.0000 C   0  0  0  0  0  0  0  0  0  0  0  0
    6.4976    0.4824    0.0000 O   0  0  0  0  0  0  0  0  0  0  0  0
    5.9674   -0.8221    0.0000 C   0  0  1  0  0  0  0  0  0  0  0  0
    6.1256   -1.6544    0.0000 C   0  0  0  0  0  0  0  0  0  0  0  0
    8.8168   -0.3568    0.0000 C   0  0  0  0  0  0  0  0  0  0  0  0
    9.0313   -1.1688    0.0000 O   0  0  0  0  0  0  0  0  0  0  0  0
    9.5097    0.1179    0.0000 O   0  0  0  0  0  0  0  0  0  0  0  0
   -0.0169   -0.8513    0.0000 C   0  0  0  0  0  0  0  0  0  0  0  0
   -0.4440   -1.6006    0.0000 O   0  0  0  0  0  0  0  0  0  0  0  0
   -0.8742   -0.7637    0.0000 O   0  0  0  0  0  0  0  0  0  0  0  0
  1  2  1  0  0  0  0
  3  2  1  1  0  0  0
  3  4  1  0  0  0  0
  4  5  1  0  0  0  0
  5  6  2  0  0  0  0
  6  7  1  0  0  0  0
  7  8  2  0  0  0  0
  8  9  1  0  0  0  0
  9 10  2  0  0  0  0
  5 10  1  0  0  0  0
  3 11  1  0  0  0  0
 11 12  1  6  0  0  0
 11 13  1  0  0  0  0
 13 14  1  0  0  0  0
 14 15  1  1  0  0  0
 14 16  1  0  0  0  0
 16 17  1  0  0  0  0
 18 17  1  1  0  0  0
 18 19  1  0  0  0  0
 19 20  1  0  0  0  0
 20 21  2  0  0  0  0
 20 22  1  0  0  0  0
 22 23  1  6  0  0  0
 22 24  1  0  0  0  0
 24 25  1  0  0  0  0
 25 26  2  0  0  0  0
 25 27  1  0  0  0  0
 27 28  1  1  0  0  0
 27 29  1  0  0  0  0
 29 30  1  0  0  0  0
 30 31  1  0  0  0  0
 31 32  2  0  0  0  0
 31 33  1  0  0  0  0
 33 34  1  1  0  0  0
 34 35  1  0  0  0  0
 35 36  1  0  0  0  0
 35 37  1  0  0  0  0
 33 38  1  0  0  0  0
 38 39  1  0  0  0  0
 39 40  2  0  0  0  0
 39 41  1  0  0  0  0
 41 42  1  1  0  0  0
 41 43  1  0  0  0  0
 43 44  1  0  0  0  0
 44 45  2  0  0  0  0
 44 46  1  0  0  0  0
 46 47  1  1  0  0  0
 46 48  1  0  0  0  0
 48 49  1  0  0  0  0
 48 50  1  0  0  0  0
 50 51  2  0  0  0  0
 50 52  1  0  0  0  0
 52 53  1  0  0  0  0
 53 54  1  0  0  0  0
 54 55  2  0  0  0  0
 55 56  1  0  0  0  0
 56 57  2  0  0  0  0
 56 58  1  0  0  0  0
 18 58  1  0  0  0  0
 58 59  1  1  0  0  0
 54 60  1  0  0  0  0
 60 61  1  0  0  0  0
 60 62  2  0  0  0  0
 29 63  1  1  0  0  0
 63 64  1  0  0  0  0
 63 65  2  0  0  0  0
M  END
> <DRUGBANK_ID>
DB04675

> <DRUG_GROUPS>
experimental

> <GENERIC_NAME>
(2S,5R,8S,11R,12S,15S,18S,19S,E)-8-ISOBUTYL-18-((5S,6S)-6-METHOXY-3,5-DIMETHYL-7-PHENYLHEPTYL)-1,2,5,12,15,19-HEXAMETHYL-3,6,9,13,16,20,25-HEPTAOXO-1,4,7,10,14,17,21-HEPTAAZACYCLOPENTACOS-21-ENE-11,22-DICARBOXYLIC ACID

> <CHEMICAL_FORMULA>
C46H71N7O12

> <MOLECULAR_WEIGHT>
914.0956

> <EXACT_MASS>
913.516070771

> <IUPAC_NAME>
(2S,5R,8S,11R,12S,15S,18S,19S,21E)-18-[(3R,5S,6S)-6-methoxy-3,5-dimethyl-7-phenylheptyl]-1,2,5,12,15,19-hexamethyl-8-(2-methylpropyl)-3,6,9,13,16,20,25-heptaoxo-1,4,7,10,14,17,21-heptaazacyclopentacos-21-ene-11,22-dicarboxylic acid

> <IUPAC_TRADITIONAL_NAME>
(2S,5R,8S,11R,12S,15S,18S,19S,21E)-18-[(3R,5S,6S)-6-methoxy-3,5-dimethyl-7-phenylheptyl]-1,2,5,12,15,19-hexamethyl-8-(2-methylpropyl)-3,6,9,13,16,20,25-heptaoxo-1,4,7,10,14,17,21-heptaazacyclopentacos-21-ene-11,22-dicarboxylic acid

> <INCHI_IDENTIFIER>
InChI=1S/C46H71N7O12/c1-24(2)21-35-44(60)52-38(46(63)64)28(6)40(56)47-29(7)41(57)49-33(18-17-25(3)22-26(4)36(65-11)23-32-15-13-12-14-16-32)27(5)39(55)50-34(45(61)62)19-20-37(54)53(10)31(9)43(59)48-30(8)42(58)51-35/h12-16,24-31,33,35-36,38H,17-23H2,1-11H3,(H,47,56)(H,48,59)(H,49,57)(H,51,58)(H,52,60)(H,61,62)(H,63,64)/b50-34+/t25-,26+,27+,28+,29+,30-,31+,33+,35+,36+,38-/m1/s1

> <INCHI_KEY>
InChIKey=QFLFLIKKNNTVJN-ZJYBNNGWSA-N

> <SMILES>
CO[C@@H](CC1=CC=CC=C1)[C@@H](C)C[C@H](C)CC[C@@H]1NC(=O)[C@H](C)NC(=O)[C@@H](C)[C@@H](NC(=O)[C@H](CC(C)C)NC(=O)[C@@H](C)NC(=O)[C@H](C)N(C)C(=O)CC\C(=N/C(=O)[C@H]1C)C(O)=O)C(O)=O

> <JCHEM_ACCEPTOR_COUNT>
13

> <JCHEM_DONOR_COUNT>
7

> <JCHEM_ACIDIC_PKA>
2.9

> <JCHEM_PHYSIOLOGICAL_CHARGE>
-2

> <ALOGPS_LOGP>
2.25

> <JCHEM_LOGP>
2.68

> <ALOGPS_LOGS>
-5.2

> <JCHEM_POLARIZABILITY>
98.18

> <JCHEM_POLAR_SURFACE_AREA>
279.07

> <JCHEM_REFRACTIVITY>
237.49

> <JCHEM_ROTATABLE_BOND_COUNT>
13

> <ALOGPS_SOLUBILITY>
6.39e-03 g/l __ 

$$$$
