
  Mrv0541 02231217322D          

 31 33  0  0  1  0            999 V2000
   -4.9500   -3.2408    0.0000 C   0  0  0  0  0  0  0  0  0  0  0  0
   -4.5375   -2.5263    0.0000 C   0  0  0  0  0  0  0  0  0  0  0  0
   -3.7125   -2.5263    0.0000 C   0  0  1  0  0  0  0  0  0  0  0  0
   -3.3000   -3.2408    0.0000 C   0  0  0  0  0  0  0  0  0  0  0  0
   -3.3000   -1.8118    0.0000 C   0  0  0  0  0  0  0  0  0  0  0  0
   -2.4750   -1.8118    0.0000 C   0  0  0  0  0  0  0  0  0  0  0  0
   -2.0625   -2.5263    0.0000 O   0  0  0  0  0  0  0  0  0  0  0  0
   -2.0625   -1.0974    0.0000 C   0  0  0  0  0  0  0  0  0  0  0  0
   -1.2375   -1.0974    0.0000 C   0  0  0  0  0  0  0  0  0  0  0  0
   -0.8250   -1.8118    0.0000 O   0  0  0  0  0  0  0  0  0  0  0  0
   -0.8250   -0.3829    0.0000 C   0  0  0  0  0  0  0  0  0  0  0  0
   -1.2375    0.3316    0.0000 C   0  0  0  0  0  0  0  0  0  0  0  0
   -0.8250    1.0461    0.0000 C   0  0  0  0  0  0  0  0  0  0  0  0
    0.0000    1.0461    0.0000 C   0  0  2  0  0  0  0  0  0  0  0  0
    0.4125    0.3316    0.0000 C   0  0  0  0  0  0  0  0  0  0  0  0
    0.0000   -0.3829    0.0000 C   0  0  0  0  0  0  0  0  0  0  0  0
    0.4125   -1.0974    0.0000 O   0  0  0  0  0  0  0  0  0  0  0  0
    0.4125    1.7605    0.0000 C   0  0  2  0  0  0  0  0  0  0  0  0
    0.0000    2.4750    0.0000 O   0  0  0  0  0  0  0  0  0  0  0  0
    0.4125    3.1895    0.0000 C   0  0  0  0  0  0  0  0  0  0  0  0
    1.2375    1.7605    0.0000 C   0  0  0  0  0  0  0  0  0  0  0  0
    1.6500    1.0461    0.0000 O   0  0  0  0  0  0  0  0  0  0  0  0
    1.6500    2.4750    0.0000 C   0  0  1  0  0  0  0  0  0  0  0  0
    1.2375    3.1895    0.0000 O   0  0  0  0  0  0  0  0  0  0  0  0
    2.4750    2.4750    0.0000 C   0  0  1  0  0  0  0  0  0  0  0  0
    2.8875    3.1895    0.0000 C   0  0  0  0  0  0  0  0  0  0  0  0
    2.8875    1.7605    0.0000 O   0  0  0  0  0  0  0  0  0  0  0  0
   -2.0625    0.3316    0.0000 C   0  0  0  0  0  0  0  0  0  0  0  0
   -2.4750   -0.3829    0.0000 C   0  0  0  0  0  0  0  0  0  0  0  0
   -3.3000   -0.3829    0.0000 C   0  0  0  0  0  0  0  0  0  0  0  0
   -3.7125   -1.0974    0.0000 C   0  0  0  0  0  0  0  0  0  0  0  0
  1  2  1  0  0  0  0
  2  3  1  0  0  0  0
  3  4  1  6  0  0  0
  3  5  1  0  0  0  0
  5  6  2  0  0  0  0
  6  7  1  0  0  0  0
  6  8  1  0  0  0  0
  8  9  2  0  0  0  0
  9 10  1  0  0  0  0
  9 11  1  0  0  0  0
 11 12  2  0  0  0  0
 12 13  1  0  0  0  0
 13 14  1  0  0  0  0
 14 15  1  0  0  0  0
 15 16  1  0  0  0  0
 11 16  1  0  0  0  0
 16 17  2  0  0  0  0
 14 18  1  1  0  0  0
 18 19  1  6  0  0  0
 19 20  1  0  0  0  0
 18 21  1  0  0  0  0
 21 22  2  0  0  0  0
 21 23  1  0  0  0  0
 23 24  1  1  0  0  0
 23 25  1  0  0  0  0
 25 26  1  0  0  0  0
 25 27  1  1  0  0  0
 12 28  1  0  0  0  0
 28 29  2  0  0  0  0
  8 29  1  0  0  0  0
 29 30  1  0  0  0  0
 30 31  2  0  0  0  0
  5 31  1  0  0  0  0
M  END
> <DRUGBANK_ID>
DB04240

> <DRUG_GROUPS>
experimental

> <GENERIC_NAME>
1,2-Hydro-1-Oxy-3,4-Hydro-3-(1-Methoxy-2-Oxy-3,4-Dihydroxypentyl)-8,9-Dihydroxy-7-(Sec-Butyl)-Anthracene

> <SYNONYMS>


> <CHEMICAL_FORMULA>
C24H30O7

> <MOLECULAR_WEIGHT>
430.4908

> <EXACT_MASS>
430.199153314

> <IUPAC_NAME>
(3R)-7-[(2R)-butan-2-yl]-3-[(1S,3S,4R)-3,4-dihydroxy-1-methoxy-2-oxopentyl]-8,9-dihydroxy-1,2,3,4-tetrahydroanthracen-1-one

> <IUPAC_TRADITIONAL_NAME>
DXA

> <INCHI_IDENTIFIER>
InChI=1S/C24H30O7/c1-5-11(2)16-7-6-13-8-14-9-15(24(31-4)23(30)20(27)12(3)25)10-17(26)18(14)22(29)19(13)21(16)28/h6-8,11-12,15,20,24-25,27-29H,5,9-10H2,1-4H3/t11-,12-,15-,20+,24+/m1/s1

> <INCHI_KEY>
InChIKey=XGORHSPGULYMCV-HHYQQTLHSA-N

> <SMILES>
CC[C@@H](C)C1=C(O)C2=C(O)C3=C(C[C@H](CC3=O)[C@H](OC)C(=O)[C@@H](O)[C@@H](C)O)C=C2C=C1

> <JCHEM_ACCEPTOR_COUNT>
7

> <JCHEM_DONOR_COUNT>
4

> <JCHEM_ACIDIC_PKA>
8.87

> <JCHEM_BASIC_PKA>
-3.1

> <JCHEM_PHYSIOLOGICAL_CHARGE>
0

> <ALOGPS_LOGP>
3.01

> <JCHEM_LOGP>
3.72

> <ALOGPS_LOGS>
-3.5

> <JCHEM_POLARIZABILITY>
46.15

> <JCHEM_POLAR_SURFACE_AREA>
124.29

> <JCHEM_REFRACTIVITY>
116.22

> <JCHEM_ROTATABLE_BOND_COUNT>
7

> <ALOGPS_SOLUBILITY>
1.27e-01 g/l __ 

$$$$
