
  Mrv0541 02231217222D          

 22 23  0  0  1  0            999 V2000
   -3.5724    3.7125    0.0000 N   0  0  0  0  0  0  0  0  0  0  0  0
   -2.8579    3.3000    0.0000 C   0  0  0  0  0  0  0  0  0  0  0  0
   -2.1434    3.7125    0.0000 N   0  0  0  0  0  0  0  0  0  0  0  0
   -1.4289    3.3000    0.0000 C   0  0  0  0  0  0  0  0  0  0  0  0
   -0.7145    3.7125    0.0000 N   0  0  0  0  0  0  0  0  0  0  0  0
    0.0000    3.3000    0.0000 C   0  0  0  0  0  0  0  0  0  0  0  0
    0.0000    2.4750    0.0000 C   0  0  0  0  0  0  0  0  0  0  0  0
    0.7145    2.0625    0.0000 C   0  0  0  0  0  0  0  0  0  0  0  0
    1.4289    2.4750    0.0000 O   0  0  0  0  0  0  0  0  0  0  0  0
    2.1434    2.0625    0.0000 P   0  0  2  0  0  0  0  0  0  0  0  0
    1.7309    1.3480    0.0000 O   0  0  0  0  0  0  0  0  0  0  0  0
    2.5559    2.7770    0.0000 O   0  0  0  0  0  0  0  0  0  0  0  0
    2.8579    1.6500    0.0000 O   0  0  0  0  0  0  0  0  0  0  0  0
    3.5724    2.0625    0.0000 P   0  0  0  0  0  0  0  0  0  0  0  0
    4.2868    2.4750    0.0000 O   0  0  0  0  0  0  0  0  0  0  0  0
    3.9849    1.3480    0.0000 O   0  0  0  0  0  0  0  0  0  0  0  0
    3.1599    2.7770    0.0000 O   0  0  0  0  0  0  0  0  0  0  0  0
   -0.7145    2.0625    0.0000 N   0  0  0  0  0  0  0  0  0  0  0  0
   -1.4289    2.4750    0.0000 C   0  0  0  0  0  0  0  0  0  0  0  0
   -2.1434    2.0625    0.0000 C   0  0  0  0  0  0  0  0  0  0  0  0
   -2.1434    1.2375    0.0000 O   0  0  0  0  0  0  0  0  0  0  0  0
   -2.8579    2.4750    0.0000 N   0  0  0  0  0  0  0  0  0  0  0  0
  1  2  1  0  0  0  0
  2  3  2  0  0  0  0
  3  4  1  0  0  0  0
  4  5  2  0  0  0  0
  5  6  1  0  0  0  0
  6  7  2  0  0  0  0
  7  8  1  0  0  0  0
  8  9  1  0  0  0  0
 10  9  1  6  0  0  0
 10 11  1  1  0  0  0
 10 12  2  0  0  0  0
 10 13  1  0  0  0  0
 13 14  1  0  0  0  0
 14 15  1  0  0  0  0
 14 16  1  0  0  0  0
 14 17  2  0  0  0  0
  7 18  1  0  0  0  0
 18 19  2  0  0  0  0
  4 19  1  0  0  0  0
 19 20  1  0  0  0  0
 20 21  2  0  0  0  0
 20 22  1  0  0  0  0
  2 22  1  0  0  0  0
M  END
> <DRUGBANK_ID>
DB04047

> <DRUG_GROUPS>
experimental

> <GENERIC_NAME>
[Pterin-6-Yl Methanyl]-Phosphonophosphate

> <CHEMICAL_FORMULA>
C7H9N5O8P2

> <MOLECULAR_WEIGHT>
353.1226

> <EXACT_MASS>
352.992635313

> <IUPAC_NAME>
({[(2-amino-4-oxo-3,4-dihydropteridin-6-yl)methoxy](hydroxy)phosphoryl}oxy)phosphonic acid

> <IUPAC_TRADITIONAL_NAME>
[(2-amino-4-oxo-3H-pteridin-6-yl)methoxy(hydroxy)phosphoryl]oxyphosphonic acid

> <INCHI_IDENTIFIER>
InChI=1S/C7H9N5O8P2/c8-7-11-5-4(6(13)12-7)10-3(1-9-5)2-19-22(17,18)20-21(14,15)16/h1H,2H2,(H,17,18)(H2,14,15,16)(H3,8,9,11,12,13)

> <INCHI_KEY>
InChIKey=AMDUVUKDRBIVAH-UHFFFAOYSA-N

> <SMILES>
NC1=NC2=NC=C(CO[P@](O)(=O)OP(O)(O)=O)N=C2C(=O)N1

> <JCHEM_ACCEPTOR_COUNT>
10

> <JCHEM_DONOR_COUNT>
5

> <JCHEM_ACIDIC_PKA>
1.81

> <JCHEM_BASIC_PKA>
0.77

> <JCHEM_PHYSIOLOGICAL_CHARGE>
-2

> <ALOGPS_LOGP>
-1.1

> <JCHEM_LOGP>
-2.4

> <ALOGPS_LOGS>
-1.8

> <JCHEM_POLARIZABILITY>
26.76

> <JCHEM_POLAR_SURFACE_AREA>
206.55

> <JCHEM_REFRACTIVITY>
69.86

> <JCHEM_ROTATABLE_BOND_COUNT>
5

> <ALOGPS_SOLUBILITY>
5.52e+00 g/l __ 

$$$$
