
  Mrv0541 02231217382D          

  7  6  0  0  1  0            999 V2000
    2.4750   -1.4289    0.0000 C   0  0  0  0  0  0  0  0  0  0  0  0
    2.0625   -0.7145    0.0000 C   0  0  0  0  0  0  0  0  0  0  0  0
    2.4750    0.0000    0.0000 C   0  0  0  0  0  0  0  0  0  0  0  0
    1.2375   -0.7145    0.0000 C   0  0  2  0  0  0  0  0  0  0  0  0
    0.8250   -1.4289    0.0000 N   0  0  0  0  0  0  0  0  0  0  0  0
    0.8250    0.0000    0.0000 C   0  0  0  0  0  0  0  0  0  0  0  0
    0.0000    0.0000    0.0000 O   0  0  0  0  0  0  0  0  0  0  0  0
  1  2  1  0  0  0  0
  2  3  1  0  0  0  0
  2  4  1  0  0  0  0
  4  5  1  6  0  0  0
  4  6  1  0  0  0  0
  6  7  1  0  0  0  0
M  END
> <DRUGBANK_ID>
DB04383

> <DRUG_GROUPS>
experimental

> <GENERIC_NAME>
L-Valinol

> <SYNONYMS>


> <CHEMICAL_FORMULA>
C5H13NO

> <MOLECULAR_WEIGHT>
103.1628

> <EXACT_MASS>
103.099714043

> <IUPAC_NAME>
(2S)-2-amino-3-methylbutan-1-ol

> <IUPAC_TRADITIONAL_NAME>
L-valinol

> <INCHI_IDENTIFIER>
InChI=1S/C5H13NO/c1-4(2)5(6)3-7/h4-5,7H,3,6H2,1-2H3/t5-/m1/s1

> <INCHI_KEY>
InChIKey=NWYYWIJOWOLJNR-RXMQYKEDSA-N

> <SMILES>
CC(C)[C@H](N)CO

> <JCHEM_ACCEPTOR_COUNT>
2

> <JCHEM_DONOR_COUNT>
2

> <JCHEM_ACIDIC_PKA>
15.12

> <JCHEM_BASIC_PKA>
9.9

> <JCHEM_PHYSIOLOGICAL_CHARGE>
1

> <ALOGPS_LOGP>
-0.3

> <JCHEM_LOGP>
-0.011

> <ALOGPS_LOGS>
0.44

> <JCHEM_POLARIZABILITY>
12.24

> <JCHEM_POLAR_SURFACE_AREA>
46.25

> <JCHEM_REFRACTIVITY>
29.63

> <JCHEM_ROTATABLE_BOND_COUNT>
2

> <ALOGPS_SOLUBILITY>
2.86e+02 g/l __ 

$$$$
