
  Mrv0541 02231217312D          

 12 12  0  0  0  0            999 V2000
    2.1434    1.2375    0.0000 N    0  0  0  0  0  0  0  0  0  0  0  0
    1.4289    0.8250    0.0000 C    0  0  0  0  0  0  0  0  0  0  0  0
    1.4289    0.0000    0.0000 C    0  0  0  0  0  0  0  0  0  0  0  0
    0.7145   -0.4125    0.0000 C    0  0  0  0  0  0  0  0  0  0  0  0
    0.0000    0.0000    0.0000 C    0  0  0  0  0  0  0  0  0  0  0  0
    0.0000    0.8250    0.0000 C    0  0  0  0  0  0  0  0  0  0  0  0
    0.7145    1.2375    0.0000 C    0  0  0  0  0  0  0  0  0  0  0  0
    0.7145    2.0625    0.0000 Hg   0  0  0  0  0  0  0  0  0  0  0  0
   -0.7145   -0.4125    0.0000 S    0  0  0  0  0  0  0  0  0  0  0  0
   -1.4289   -0.8250    0.0000 N    0  0  0  0  0  0  0  0  0  0  0  0
   -1.1270    0.3020    0.0000 O    0  0  0  0  0  0  0  0  0  0  0  0
   -0.3020   -1.1270    0.0000 O    0  0  0  0  0  0  0  0  0  0  0  0
  1  2  1  0  0  0  0
  2  3  2  0  0  0  0
  3  4  1  0  0  0  0
  4  5  2  0  0  0  0
  5  6  1  0  0  0  0
  6  7  2  0  0  0  0
  2  7  1  0  0  0  0
  7  8  1  0  0  0  0
  5  9  1  0  0  0  0
  9 10  1  0  0  0  0
  9 11  2  0  0  0  0
  9 12  2  0  0  0  0
M  END
> <DRUGBANK_ID>
DB04203

> <DRUG_GROUPS>
experimental

> <GENERIC_NAME>
3-Mercuri-4-Aminobenzenesulfonamide

> <CHEMICAL_FORMULA>
C6H7HgN2O2S

> <MOLECULAR_WEIGHT>
371.79

> <EXACT_MASS>
372.993448772

> <IUPAC_NAME>
(2-amino-5-sulfamoylphenyl)mercury

> <IUPAC_TRADITIONAL_NAME>
(2-amino-5-sulfamoylphenyl)mercury

> <INCHI_IDENTIFIER>
InChI=1S/C6H7N2O2S.Hg/c7-5-1-3-6(4-2-5)11(8,9)10;/h1,3-4H,7H2,(H2,8,9,10);

> <INCHI_KEY>
InChIKey=KGGLGSZFQPTPPT-UHFFFAOYSA-N

> <SMILES>
NC1=CC=C(C=C1[Hg])S(N)(=O)=O

> <JCHEM_ACCEPTOR_COUNT>
3

> <JCHEM_DONOR_COUNT>
2

> <JCHEM_ACIDIC_PKA>
11.06

> <JCHEM_BASIC_PKA>
2.49

> <JCHEM_PHYSIOLOGICAL_CHARGE>
0

> <ALOGPS_LOGP>
-0.5

> <JCHEM_LOGP>
-1.2

> <ALOGPS_LOGS>
-1.8

> <JCHEM_POLARIZABILITY>
18.11

> <JCHEM_POLAR_SURFACE_AREA>
86.18

> <JCHEM_REFRACTIVITY>
42.33

> <JCHEM_ROTATABLE_BOND_COUNT>
1

> <ALOGPS_SOLUBILITY>
5.75e+00 g/l __ 

$$$$
