4812
  Mrv0541 02231217562D          

 21 23  0  0  1  0            999 V2000
   10.2277   -0.4125    0.0000 Cl   0  0  0  0  0  0  0  0  0  0  0  0
    6.4461   -1.0764    0.0000 O    0  0  0  0  0  0  0  0  0  0  0  0
    2.0930    0.4125    0.0000 O    0  0  0  0  0  0  0  0  0  0  0  0
    2.8075   -0.8250    0.0000 O    0  0  0  0  0  0  0  0  0  0  0  0
    6.4461    0.2514    0.0000 N    0  0  0  0  0  0  0  0  0  0  0  0
    3.5220    0.4125    0.0000 C    0  0  0  0  0  0  0  0  0  0  0  0
    4.2365    0.0000    0.0000 C    0  0  0  0  0  0  0  0  0  0  0  0
    5.6655    0.0000    0.0000 C    0  0  0  0  0  0  0  0  0  0  0  0
    4.9509    0.4125    0.0000 C    0  0  0  0  0  0  0  0  0  0  0  0
    5.6655   -0.8250    0.0000 C    0  0  0  0  0  0  0  0  0  0  0  0
    4.2365   -0.8250    0.0000 C    0  0  0  0  0  0  0  0  0  0  0  0
    4.9509   -1.2375    0.0000 C    0  0  0  0  0  0  0  0  0  0  0  0
    3.5220    1.2375    0.0000 C    0  0  0  0  0  0  0  0  0  0  0  0
    6.9276   -0.4125    0.0000 C    0  0  0  0  0  0  0  0  0  0  0  0
    7.7526   -0.4125    0.0000 C    0  0  0  0  0  0  0  0  0  0  0  0
    2.8075    0.0000    0.0000 C    0  0  0  0  0  0  0  0  0  0  0  0
    8.1651    0.3020    0.0000 C    0  0  0  0  0  0  0  0  0  0  0  0
    8.1651   -1.1270    0.0000 C    0  0  0  0  0  0  0  0  0  0  0  0
    8.9901    0.3020    0.0000 C    0  0  0  0  0  0  0  0  0  0  0  0
    8.9901   -1.1270    0.0000 C    0  0  0  0  0  0  0  0  0  0  0  0
    9.4026   -0.4125    0.0000 C    0  0  0  0  0  0  0  0  0  0  0  0
  1 21  1  0  0  0  0
  2 10  1  0  0  0  0
  2 14  1  0  0  0  0
  3 16  1  0  0  0  0
  4 16  2  0  0  0  0
  5  8  1  0  0  0  0
  5 14  2  0  0  0  0
  6  7  1  0  0  0  0
  6 13  1  0  0  0  0
  6 16  1  0  0  0  0
  7  9  2  0  0  0  0
  7 11  1  0  0  0  0
  8  9  1  0  0  0  0
  8 10  2  0  0  0  0
 10 12  1  0  0  0  0
 11 12  2  0  0  0  0
 14 15  1  0  0  0  0
 15 17  2  0  0  0  0
 15 18  1  0  0  0  0
 17 19  1  0  0  0  0
 18 20  2  0  0  0  0
 19 21  2  0  0  0  0
 20 21  1  0  0  0  0
M  END
> <DRUGBANK_ID>
DB04812

> <DRUG_GROUPS>
withdrawn

> <GENERIC_NAME>
Benoxaprofen

> <SYNONYMS>
Benoxaprofene; Benoxaprofeno; Benoxaprofenum

> <BRANDS>


> <CHEMICAL_FORMULA>
C16H12ClNO3

> <MOLECULAR_WEIGHT>
301.724

> <EXACT_MASS>
301.050570962

> <IUPAC_NAME>
2-[2-(4-chlorophenyl)-1,3-benzoxazol-5-yl]propanoic acid

> <IUPAC_TRADITIONAL_NAME>
2-[2-(4-chlorophenyl)-1,3-benzoxazol-5-yl]propanoic acid

> <INCHI_IDENTIFIER>
InChI=1S/C16H12ClNO3/c1-9(16(19)20)11-4-7-14-13(8-11)18-15(21-14)10-2-5-12(17)6-3-10/h2-9H,1H3,(H,19,20)

> <INCHI_KEY>
InChIKey=MITFXPHMIHQXPI-UHFFFAOYSA-N

> <SMILES>
CC(C(O)=O)C1=CC2=C(OC(=N2)C2=CC=C(Cl)C=C2)C=C1

> <JCHEM_ACCEPTOR_COUNT>
3

> <JCHEM_DONOR_COUNT>
1

> <JCHEM_ACIDIC_PKA>
4.66

> <JCHEM_BASIC_PKA>
0.091

> <JCHEM_PHYSIOLOGICAL_CHARGE>
-1

> <ALOGPS_LOGP>
4.22

> <JCHEM_LOGP>
4.13

> <ALOGPS_LOGS>
-4

> <JCHEM_POLARIZABILITY>
31.34

> <JCHEM_POLAR_SURFACE_AREA>
63.33

> <JCHEM_REFRACTIVITY>
88.51

> <JCHEM_ROTATABLE_BOND_COUNT>
3

> <ALOGPS_SOLUBILITY>
3.17e-02 g/l __ 

$$$$
