
  Mrv0541 02231217212D          

 12 11  0  0  1  0            999 V2000
    7.2849    3.3809    0.0000 N   0  0  0  0  0  0  0  0  0  0  0  0
    7.2849    2.5559    0.0000 C   0  0  1  0  0  0  0  0  0  0  0  0
    6.5704    2.1434    0.0000 C   0  0  0  0  0  0  0  0  0  0  0  0
    5.8559    2.5559    0.0000 C   0  0  0  0  0  0  0  0  0  0  0  0
    5.1414    2.1434    0.0000 C   0  0  0  0  0  0  0  0  0  0  0  0
    4.4270    2.5559    0.0000 N   0  0  0  0  0  0  0  0  0  0  0  0
    3.7125    2.1434    0.0000 C   0  0  0  0  0  0  0  0  0  0  0  0
    2.9980    2.5559    0.0000 N   0  0  0  0  0  0  0  0  0  0  0  0
    3.7125    1.3184    0.0000 N   0  3  0  0  0  0  0  0  0  0  0  0
    7.9993    2.1434    0.0000 C   0  0  0  0  0  0  0  0  0  0  0  0
    8.7138    2.5559    0.0000 O   0  0  0  0  0  0  0  0  0  0  0  0
    7.9993    1.3184    0.0000 O   0  0  0  0  0  0  0  0  0  0  0  0
  2  1  1  6  0  0  0
  2  3  1  0  0  0  0
  3  4  1  0  0  0  0
  4  5  1  0  0  0  0
  5  6  1  0  0  0  0
  6  7  1  0  0  0  0
  7  8  1  0  0  0  0
  7  9  2  0  0  0  0
  2 10  1  0  0  0  0
 10 11  1  0  0  0  0
 10 12  2  0  0  0  0
M  END
> <DRUGBANK_ID>
DB04027

> <DRUG_GROUPS>
experimental

> <GENERIC_NAME>
D-Arginine

> <CHEMICAL_FORMULA>
C6H15N4O2

> <MOLECULAR_WEIGHT>
175.2089

> <EXACT_MASS>
175.119500744

> <IUPAC_NAME>
[amino({[(4S)-4-amino-4-carboxybutyl]amino})methylidene]azanium

> <IUPAC_TRADITIONAL_NAME>
D-arginine

> <INCHI_IDENTIFIER>
InChI=1S/C6H14N4O2/c7-4(5(11)12)2-1-3-10-6(8)9/h4H,1-3,7H2,(H,11,12)(H4,8,9,10)/p+1/t4-/m0/s1

> <INCHI_KEY>
InChIKey=ODKSFYDXXFIFQN-BYPYZUCNSA-O

> <SMILES>
N[C@@H](CCCNC(N)=[NH2+])C(O)=O

> <JCHEM_ACCEPTOR_COUNT>
5

> <JCHEM_DONOR_COUNT>
5

> <JCHEM_ACIDIC_PKA>
2.41

> <JCHEM_BASIC_PKA>
12.41

> <JCHEM_PHYSIOLOGICAL_CHARGE>
1

> <ALOGPS_LOGP>
-0.59

> <JCHEM_LOGP>
-3.2

> <ALOGPS_LOGS>
-0.91

> <JCHEM_POLARIZABILITY>
18.39

> <JCHEM_POLAR_SURFACE_AREA>
126.96

> <JCHEM_REFRACTIVITY>
54.72

> <JCHEM_ROTATABLE_BOND_COUNT>
5

> <ALOGPS_SOLUBILITY>
2.57e+01 g/l __ 

$$$$
