
  Mrv0541 02231217472D          

 12 12  0  0  0  0            999 V2000
    2.1434    1.2375    0.0000 N    0  0  0  0  0  0  0  0  0  0  0  0
    1.4289    0.8250    0.0000 C    0  0  0  0  0  0  0  0  0  0  0  0
    1.4289    0.0000    0.0000 C    0  0  0  0  0  0  0  0  0  0  0  0
    0.7145   -0.4125    0.0000 C    0  0  0  0  0  0  0  0  0  0  0  0
    0.0000    0.0000    0.0000 C    0  0  0  0  0  0  0  0  0  0  0  0
    0.0000    0.8250    0.0000 C    0  0  0  0  0  0  0  0  0  0  0  0
   -0.7145    1.2375    0.0000 Cl   0  0  0  0  0  0  0  0  0  0  0  0
    0.7145    1.2375    0.0000 C    0  0  0  0  0  0  0  0  0  0  0  0
    0.7145    2.0625    0.0000 O    0  0  0  0  0  0  0  0  0  0  0  0
    2.1434   -0.4125    0.0000 C    0  0  0  0  0  0  0  0  0  0  0  0
    2.8579    0.0000    0.0000 O    0  0  0  0  0  0  0  0  0  0  0  0
    2.1434   -1.2375    0.0000 O    0  0  0  0  0  0  0  0  0  0  0  0
  1  2  1  0  0  0  0
  2  3  2  0  0  0  0
  3  4  1  0  0  0  0
  4  5  2  0  0  0  0
  5  6  1  0  0  0  0
  6  7  1  0  0  0  0
  6  8  2  0  0  0  0
  2  8  1  0  0  0  0
  8  9  1  0  0  0  0
  3 10  1  0  0  0  0
 10 11  1  0  0  0  0
 10 12  2  0  0  0  0
M  END
> <DRUGBANK_ID>
DB04598

> <DRUG_GROUPS>
experimental

> <GENERIC_NAME>
2-AMINO-4-CHLORO-3-HYDROXYBENZOIC ACID

> <CHEMICAL_FORMULA>
C7H6ClNO3

> <MOLECULAR_WEIGHT>
187.58

> <EXACT_MASS>
187.00362077

> <IUPAC_NAME>
2-amino-4-chloro-3-hydroxybenzoic acid

> <IUPAC_TRADITIONAL_NAME>
2-amino-4-chloro-3-hydroxybenzoic acid

> <INCHI_IDENTIFIER>
InChI=1S/C7H6ClNO3/c8-4-2-1-3(7(11)12)5(9)6(4)10/h1-2,10H,9H2,(H,11,12)

> <INCHI_KEY>
InChIKey=VWEPFJPQZFIOAU-UHFFFAOYSA-N

> <SMILES>
NC1=C(C=CC(Cl)=C1O)C(O)=O

> <JCHEM_ACCEPTOR_COUNT>
4

> <JCHEM_DONOR_COUNT>
3

> <JCHEM_ACIDIC_PKA>
4.56

> <JCHEM_BASIC_PKA>
1.53

> <JCHEM_PHYSIOLOGICAL_CHARGE>
-1

> <ALOGPS_LOGP>
1.62

> <JCHEM_LOGP>
1.75

> <ALOGPS_LOGS>
-2

> <JCHEM_POLARIZABILITY>
16.43

> <JCHEM_POLAR_SURFACE_AREA>
83.55

> <JCHEM_REFRACTIVITY>
44.8

> <JCHEM_ROTATABLE_BOND_COUNT>
1

> <ALOGPS_SOLUBILITY>
1.86e+00 g/l __ 

$$$$
