CB4
  Mrv0541 02231217222D          

 22 22  0  0  0  0            999 V2000
   -2.6225   -0.2714    0.0000 B   0  0  0  0  0  0  0  0  0  0  0  0
   -3.3370    0.1411    0.0000 O   0  0  0  0  0  0  0  0  0  0  0  0
   -2.6225   -1.0964    0.0000 O   0  0  0  0  0  0  0  0  0  0  0  0
   -1.9081    0.1411    0.0000 C   0  0  0  0  0  0  0  0  0  0  0  0
   -1.1936   -0.2714    0.0000 N   0  0  0  0  0  0  0  0  0  0  0  0
   -0.4791    0.1411    0.0000 C   0  0  0  0  0  0  0  0  0  0  0  0
   -0.4791    0.9661    0.0000 O   0  0  0  0  0  0  0  0  0  0  0  0
    0.2353   -0.2714    0.0000 C   0  0  0  0  0  0  0  0  0  0  0  0
    0.9498    0.1411    0.0000 N   0  0  0  0  0  0  0  0  0  0  0  0
    0.9498    0.9661    0.0000 O   0  0  0  0  0  0  0  0  0  0  0  0
    1.6643    1.3786    0.0000 C   0  0  0  0  0  0  0  0  0  0  0  0
    0.2353   -1.0964    0.0000 C   0  0  0  0  0  0  0  0  0  0  0  0
    0.9028   -1.5813    0.0000 C   0  0  0  0  0  0  0  0  0  0  0  0
    0.6478   -2.3659    0.0000 S   0  0  0  0  0  0  0  0  0  0  0  0
   -0.1772   -2.3659    0.0000 C   0  0  0  0  0  0  0  0  0  0  0  0
   -0.6621   -3.0333    0.0000 N   0  0  0  0  0  0  0  0  0  0  0  0
   -0.4321   -1.5813    0.0000 N   0  0  0  0  0  0  0  0  0  0  0  0
    2.0768    0.6642    0.0000 C   0  0  0  0  0  0  0  0  0  0  0  0
    1.2518    2.0931    0.0000 C   0  0  0  0  0  0  0  0  0  0  0  0
    2.3788    1.7911    0.0000 C   0  0  0  0  0  0  0  0  0  0  0  0
    2.3788    2.6161    0.0000 O   0  0  0  0  0  0  0  0  0  0  0  0
    3.0932    1.3786    0.0000 O   0  0  0  0  0  0  0  0  0  0  0  0
  1  2  1  0  0  0  0
  1  3  1  0  0  0  0
  1  4  1  0  0  0  0
  4  5  1  0  0  0  0
  5  6  1  0  0  0  0
  6  7  2  0  0  0  0
  6  8  1  0  0  0  0
  8  9  2  0  0  0  0
  8 12  1  0  0  0  0
  9 10  1  0  0  0  0
 10 11  1  0  0  0  0
 11 18  1  0  0  0  0
 11 19  1  0  0  0  0
 11 20  1  0  0  0  0
 12 13  2  0  0  0  0
 12 17  1  0  0  0  0
 13 14  1  0  0  0  0
 14 15  1  0  0  0  0
 15 16  1  0  0  0  0
 15 17  2  0  0  0  0
 20 21  2  0  0  0  0
 20 22  1  0  0  0  0
M  END
> <DRUGBANK_ID>
DB04035

> <DRUG_GROUPS>
experimental

> <GENERIC_NAME>
Pinacol[[2-Amino-Alpha-(1-Carboxy-1-Methylethoxyimino)-4-Thiazoleacetyl]Amino]Methaneboronate

> <CHEMICAL_FORMULA>
C10H15BN4O6S

> <MOLECULAR_WEIGHT>
330.125

> <EXACT_MASS>
330.080535388

> <IUPAC_NAME>
2-{[(Z)-[(2-amino-1,3-thiazol-4-yl)({[(dihydroxyboranyl)methyl]carbamoyl})methylidene]amino]oxy}-2-methylpropanoic acid

> <IUPAC_TRADITIONAL_NAME>
2-{[(Z)-[(2-amino-1,3-thiazol-4-yl)[(dihydroxyboranyl)methylcarbamoyl]methylidene]amino]oxy}-2-methylpropanoic acid

> <INCHI_IDENTIFIER>
InChI=1S/C10H15BN4O6S/c1-10(2,8(17)18)21-15-6(5-3-22-9(12)14-5)7(16)13-4-11(19)20/h3,19-20H,4H2,1-2H3,(H2,12,14)(H,13,16)(H,17,18)/b15-6-

> <INCHI_KEY>
InChIKey=ZECCQELUYUPTSB-UUASQNMZSA-N

> <SMILES>
CC(C)(O\N=C(/C(=O)NCB(O)O)C1=CSC(N)=N1)C(O)=O

> <JCHEM_ACCEPTOR_COUNT>
9

> <JCHEM_DONOR_COUNT>
5

> <JCHEM_ACIDIC_PKA>
3.07

> <JCHEM_BASIC_PKA>
4.13

> <JCHEM_PHYSIOLOGICAL_CHARGE>
-1

> <ALOGPS_LOGP>
0.16

> <JCHEM_LOGP>
-0.06

> <ALOGPS_LOGS>
-3.5

> <JCHEM_POLARIZABILITY>
31.59

> <JCHEM_POLAR_SURFACE_AREA>
167.36

> <JCHEM_REFRACTIVITY>
71.43

> <JCHEM_ROTATABLE_BOND_COUNT>
7

> <ALOGPS_SOLUBILITY>
1.15e-01 g/l __ 

$$$$
