
  Mrv0541 02231217232D          

  5  4  0  0  0  0            999 V2000
    2.8875   -0.7145    0.0000 C   0  0  0  0  0  0  0  0  0  0  0  0
    2.0625   -0.7145    0.0000 C   0  0  0  0  0  0  0  0  0  0  0  0
    1.6500    0.0000    0.0000 C   0  0  0  0  0  0  0  0  0  0  0  0
    0.8250    0.0000    0.0000 N   0  3  0  0  0  0  0  0  0  0  0  0
    0.0000    0.0000    0.0000 C   0  5  0  0  0  0  0  0  0  0  0  0
  1  2  1  0  0  0  0
  2  3  1  0  0  0  0
  3  4  1  0  0  0  0
  4  5  3  0  0  0  0
M  END
> <DRUGBANK_ID>
DB04050

> <DRUG_GROUPS>
experimental

> <GENERIC_NAME>
N-Propyl Isocyanide

> <CHEMICAL_FORMULA>
C4H7N

> <MOLECULAR_WEIGHT>
69.1051

> <EXACT_MASS>
69.057849229

> <IUPAC_NAME>
1-isocyanopropane

> <IUPAC_TRADITIONAL_NAME>
N-propyl isocyanide

> <INCHI_IDENTIFIER>
InChI=1S/C4H7N/c1-3-4-5-2/h3-4H2,1H3

> <INCHI_KEY>
InChIKey=FFDKYFGBIQQMSR-UHFFFAOYSA-N

> <SMILES>
CCC[N+]#[C-]

> <JCHEM_ACCEPTOR_COUNT>
0

> <JCHEM_DONOR_COUNT>
0

> <JCHEM_ACIDIC_PKA>
16.22

> <JCHEM_PHYSIOLOGICAL_CHARGE>
1

> <ALOGPS_LOGP>
1.62

> <JCHEM_LOGP>
-1.1

> <ALOGPS_LOGS>
-2

> <JCHEM_POLARIZABILITY>
8.23

> <JCHEM_POLAR_SURFACE_AREA>
4.36

> <JCHEM_REFRACTIVITY>
30.78

> <JCHEM_ROTATABLE_BOND_COUNT>
1

> <ALOGPS_SOLUBILITY>
1.24e+00 g/l __ 

$$$$
