
  Mrv0541 02231217542D          

 21 22  0  0  0  0            999 V2000
    1.4289   -1.6500    0.0000 C   0  0  0  0  0  0  0  0  0  0  0  0
    1.4289   -2.4750    0.0000 C   0  0  0  0  0  0  0  0  0  0  0  0
    2.1434   -2.8875    0.0000 C   0  0  0  0  0  0  0  0  0  0  0  0
    2.1434   -3.7125    0.0000 C   0  0  0  0  0  0  0  0  0  0  0  0
    2.8579   -4.1250    0.0000 C   0  0  0  0  0  0  0  0  0  0  0  0
    1.4289   -4.1250    0.0000 N   0  3  0  0  0  0  0  0  0  0  0  0
    1.4289   -4.9500    0.0000 C   0  0  0  0  0  0  0  0  0  0  0  0
    2.1434   -5.3625    0.0000 C   0  0  0  0  0  0  0  0  0  0  0  0
    2.1434   -6.1875    0.0000 C   0  0  0  0  0  0  0  0  0  0  0  0
    2.8579   -6.6000    0.0000 C   0  0  0  0  0  0  0  0  0  0  0  0
    2.8579   -7.4250    0.0000 C   0  0  0  0  0  0  0  0  0  0  0  0
    2.1434   -7.8375    0.0000 C   0  0  0  0  0  0  0  0  0  0  0  0
    1.4289   -7.4250    0.0000 C   0  0  0  0  0  0  0  0  0  0  0  0
    1.4289   -6.6000    0.0000 C   0  0  0  0  0  0  0  0  0  0  0  0
    2.1434   -8.6625    0.0000 S   0  0  0  0  0  0  0  0  0  0  0  0
    2.1434   -9.4875    0.0000 N   0  0  0  0  0  0  0  0  0  0  0  0
    1.3184   -8.6625    0.0000 O   0  0  0  0  0  0  0  0  0  0  0  0
    2.9684   -8.6625    0.0000 O   0  0  0  0  0  0  0  0  0  0  0  0
    0.7145   -3.7125    0.0000 C   0  0  0  0  0  0  0  0  0  0  0  0
    0.0000   -4.1250    0.0000 C   0  0  0  0  0  0  0  0  0  0  0  0
    0.7145   -2.8875    0.0000 C   0  0  0  0  0  0  0  0  0  0  0  0
  1  2  1  0  0  0  0
  2  3  2  0  0  0  0
  3  4  1  0  0  0  0
  4  5  1  0  0  0  0
  4  6  2  0  0  0  0
  6  7  1  0  0  0  0
  7  8  1  0  0  0  0
  8  9  1  0  0  0  0
  9 10  2  0  0  0  0
 10 11  1  0  0  0  0
 11 12  2  0  0  0  0
 12 13  1  0  0  0  0
 13 14  2  0  0  0  0
  9 14  1  0  0  0  0
 12 15  1  0  0  0  0
 15 16  1  0  0  0  0
 15 17  2  0  0  0  0
 15 18  2  0  0  0  0
  6 19  1  0  0  0  0
 19 20  1  0  0  0  0
 19 21  2  0  0  0  0
  2 21  1  0  0  0  0
M  END
> <DRUGBANK_ID>
DB04763

> <DRUG_GROUPS>
experimental

> <GENERIC_NAME>
1-N-(4-SULFAMOYLPHENYL-ETHYL)-2,4,6-TRIMETHYLPYRIDINIUM

> <CHEMICAL_FORMULA>
C16H21N2O2S

> <MOLECULAR_WEIGHT>
305.415

> <EXACT_MASS>
305.132373616

> <IUPAC_NAME>
2,4,6-trimethyl-1-[2-(4-sulfamoylphenyl)ethyl]pyridin-1-ium

> <IUPAC_TRADITIONAL_NAME>
2,4,6-trimethyl-1-[2-(4-sulfamoylphenyl)ethyl]pyridin-1-ium

> <INCHI_IDENTIFIER>
InChI=1S/C16H21N2O2S/c1-12-10-13(2)18(14(3)11-12)9-8-15-4-6-16(7-5-15)21(17,19)20/h4-7,10-11H,8-9H2,1-3H3,(H2,17,19,20)/q+1

> <INCHI_KEY>
InChIKey=UXBCHTZINZNVRG-UHFFFAOYSA-N

> <SMILES>
CC1=CC(C)=[N+](CCC2=CC=C(C=C2)S(N)(=O)=O)C(C)=C1

> <JCHEM_ACCEPTOR_COUNT>
2

> <JCHEM_DONOR_COUNT>
1

> <JCHEM_ACIDIC_PKA>
10.3

> <JCHEM_PHYSIOLOGICAL_CHARGE>
1

> <ALOGPS_LOGP>
-1.3

> <JCHEM_LOGP>
-2.7

> <ALOGPS_LOGS>
-6.3

> <JCHEM_POLARIZABILITY>
34.14

> <JCHEM_POLAR_SURFACE_AREA>
64.04

> <JCHEM_REFRACTIVITY>
86.31

> <JCHEM_ROTATABLE_BOND_COUNT>
4

> <ALOGPS_SOLUBILITY>
1.52e-04 g/l __ 

$$$$
