
  Mrv0541 02231217392D          

 13 13  0  0  1  0            999 V2000
   -1.4289   -0.8250    0.0000 N    0  0  0  0  0  0  0  0  0  0  0  0
   -1.4289    0.0000    0.0000 C    0  0  1  0  0  0  0  0  0  0  0  0
   -2.1434    0.4125    0.0000 C    0  0  0  0  0  0  0  0  0  0  0  0
   -2.8579    0.0000    0.0000 C    0  0  0  0  0  0  0  0  0  0  0  0
   -2.8579   -0.8250    0.0000 C    0  0  0  0  0  0  0  0  0  0  0  0
   -3.5724   -1.2375    0.0000 C    0  0  0  0  0  0  0  0  0  0  0  0
   -4.2868   -0.8250    0.0000 C    0  0  0  0  0  0  0  0  0  0  0  0
   -4.2868    0.0000    0.0000 C    0  0  0  0  0  0  0  0  0  0  0  0
   -3.5724    0.4125    0.0000 C    0  0  0  0  0  0  0  0  0  0  0  0
   -0.7145    0.4125    0.0000 C    0  0  1  0  0  0  0  0  0  0  0  0
   -0.7145    1.2375    0.0000 O    0  0  0  0  0  0  0  0  0  0  0  0
    0.0000    0.0000    0.0000 C    0  0  0  0  0  0  0  0  0  0  0  0
    0.7145    0.4125    0.0000 Cl   0  0  0  0  0  0  0  0  0  0  0  0
  2  1  1  1  0  0  0
  2  3  1  0  0  0  0
  3  4  1  0  0  0  0
  4  5  2  0  0  0  0
  5  6  1  0  0  0  0
  6  7  2  0  0  0  0
  7  8  1  0  0  0  0
  8  9  2  0  0  0  0
  4  9  1  0  0  0  0
  2 10  1  0  0  0  0
 10 11  1  1  0  0  0
 10 12  1  0  0  0  0
 12 13  1  0  0  0  0
M  END
> <DRUGBANK_ID>
DB04415

> <DRUG_GROUPS>
experimental

> <GENERIC_NAME>
3-Amino-1-Chloro-4-Phenyl-Butanol-2-Yl

> <CHEMICAL_FORMULA>
C10H14ClNO

> <MOLECULAR_WEIGHT>
199.677

> <EXACT_MASS>
199.076391782

> <IUPAC_NAME>
(2R,3S)-3-amino-1-chloro-4-phenylbutan-2-ol

> <IUPAC_TRADITIONAL_NAME>
(2R,3S)-3-amino-1-chloro-4-phenylbutan-2-ol

> <INCHI_IDENTIFIER>
InChI=1S/C10H14ClNO/c11-7-10(13)9(12)6-8-4-2-1-3-5-8/h1-5,9-10,13H,6-7,12H2/t9-,10-/m0/s1

> <INCHI_KEY>
InChIKey=YXWOYBQZWSLSMU-UWVGGRQHSA-N

> <SMILES>
N[C@@H](CC1=CC=CC=C1)[C@@H](O)CCl

> <JCHEM_ACCEPTOR_COUNT>
2

> <JCHEM_DONOR_COUNT>
2

> <JCHEM_ACIDIC_PKA>
13.77

> <JCHEM_BASIC_PKA>
9.42

> <JCHEM_PHYSIOLOGICAL_CHARGE>
1

> <ALOGPS_LOGP>
1.02

> <JCHEM_LOGP>
1.48

> <ALOGPS_LOGS>
-1.8

> <JCHEM_POLARIZABILITY>
21.13

> <JCHEM_POLAR_SURFACE_AREA>
46.25

> <JCHEM_REFRACTIVITY>
54.26

> <JCHEM_ROTATABLE_BOND_COUNT>
4

> <ALOGPS_SOLUBILITY>
3.08e+00 g/l __ 

$$$$
