
  Mrv0541 02231217352D          

 10  9  0  0  1  0            999 V2000
    1.7605    1.8414    0.0000 C   0  0  0  0  0  0  0  0  0  0  0  0
    2.4750    1.4289    0.0000 C   0  0  0  0  0  0  0  0  0  0  0  0
    2.4750    0.6039    0.0000 O   0  0  0  0  0  0  0  0  0  0  0  0
    3.1895    1.8414    0.0000 C   0  0  0  0  0  0  0  0  0  0  0  0
    3.9039    1.4289    0.0000 C   0  0  0  0  0  0  0  0  0  0  0  0
    4.6184    1.8414    0.0000 C   0  0  1  0  0  0  0  0  0  0  0  0
    4.6184    2.6664    0.0000 N   0  0  0  0  0  0  0  0  0  0  0  0
    5.3329    1.4289    0.0000 C   0  0  0  0  0  0  0  0  0  0  0  0
    6.0474    1.8414    0.0000 O   0  0  0  0  0  0  0  0  0  0  0  0
    5.3329    0.6039    0.0000 O   0  0  0  0  0  0  0  0  0  0  0  0
  1  2  1  0  0  0  0
  2  3  2  0  0  0  0
  2  4  1  0  0  0  0
  4  5  1  0  0  0  0
  5  6  1  0  0  0  0
  6  7  1  1  0  0  0
  6  8  1  0  0  0  0
  8  9  1  0  0  0  0
  8 10  2  0  0  0  0
M  END
> <DRUGBANK_ID>
DB04296

> <DRUG_GROUPS>
experimental

> <GENERIC_NAME>
5-Oxo-L-Norleucine

> <CHEMICAL_FORMULA>
C6H11NO3

> <MOLECULAR_WEIGHT>
145.1564

> <EXACT_MASS>
145.073893223

> <IUPAC_NAME>
(2R)-2-amino-5-oxohexanoic acid

> <IUPAC_TRADITIONAL_NAME>
5-oxo-L-norleucine

> <INCHI_IDENTIFIER>
InChI=1S/C6H11NO3/c1-4(8)2-3-5(7)6(9)10/h5H,2-3,7H2,1H3,(H,9,10)/t5-/m1/s1

> <INCHI_KEY>
InChIKey=KSIJECNNZVKMJG-RXMQYKEDSA-N

> <SMILES>
CC(=O)CC[C@@H](N)C(O)=O

> <JCHEM_ACCEPTOR_COUNT>
4

> <JCHEM_DONOR_COUNT>
2

> <JCHEM_ACIDIC_PKA>
2.25

> <JCHEM_BASIC_PKA>
9.11

> <JCHEM_PHYSIOLOGICAL_CHARGE>
0

> <ALOGPS_LOGP>
-2.5

> <JCHEM_LOGP>
-2.9

> <ALOGPS_LOGS>
-0.2

> <JCHEM_POLARIZABILITY>
14.38

> <JCHEM_POLAR_SURFACE_AREA>
80.39

> <JCHEM_REFRACTIVITY>
34.84

> <JCHEM_ROTATABLE_BOND_COUNT>
4

> <ALOGPS_SOLUBILITY>
9.16e+01 g/l __ 

$$$$
