
  Mrv0541 02231217442D          

 54 56  0  0  1  0            999 V2000
    1.5180    0.0394    0.0000 C   0  0  0  0  0  0  0  0  0  0  0  0
    1.8886    0.7765    0.0000 C   0  0  0  0  0  0  0  0  0  0  0  0
    2.2593    1.5135    0.0000 C   0  0  0  0  0  0  0  0  0  0  0  0
    1.1516    1.1471    0.0000 C   0  0  0  0  0  0  0  0  0  0  0  0
    0.4621    0.6941    0.0000 O   0  0  0  0  0  0  0  0  0  0  0  0
   -0.2750    1.0648    0.0000 P   0  0  2  0  0  0  0  0  0  0  0  0
   -0.6456    0.3277    0.0000 O   0  0  0  0  0  0  0  0  0  0  0  0
    0.0956    1.8018    0.0000 O   0  0  0  0  0  0  0  0  0  0  0  0
   -1.0121    1.4354    0.0000 O   0  0  0  0  0  0  0  0  0  0  0  0
   -1.7016    0.9824    0.0000 P   0  0  1  0  0  0  0  0  0  0  0  0
   -1.2486    0.2929    0.0000 O   0  0  0  0  0  0  0  0  0  0  0  0
   -2.1546    1.6719    0.0000 O   0  0  0  0  0  0  0  0  0  0  0  0
   -2.3911    0.5294    0.0000 O   0  0  0  0  0  0  0  0  0  0  0  0
   -3.1281    0.9000    0.0000 C   0  0  0  0  0  0  0  0  0  0  0  0
   -3.8176    0.4470    0.0000 C   0  0  2  0  0  0  0  0  0  0  0  0
   -3.8564   -0.3771    0.0000 O   0  0  0  0  0  0  0  0  0  0  0  0
   -4.6522   -0.5948    0.0000 C   0  0  2  0  0  0  0  0  0  0  0  0
   -5.1052    0.0947    0.0000 C   0  0  2  0  0  0  0  0  0  0  0  0
   -5.9293    0.1335    0.0000 O   0  0  0  0  0  0  0  0  0  0  0  0
   -4.5894    0.7386    0.0000 C   0  0  1  0  0  0  0  0  0  0  0  0
   -4.8072    1.5343    0.0000 O   0  0  0  0  0  0  0  0  0  0  0  0
   -4.2269    2.1208    0.0000 P   0  0  0  0  0  0  0  0  0  0  0  0
   -3.6405    1.5405    0.0000 O   0  0  0  0  0  0  0  0  0  0  0  0
   -4.8134    2.7010    0.0000 O   0  0  0  0  0  0  0  0  0  0  0  0
   -3.6466    2.7072    0.0000 O   0  0  0  0  0  0  0  0  0  0  0  0
   -4.9437   -1.3666    0.0000 N   0  0  0  0  0  0  0  0  0  0  0  0
   -5.7395   -1.5843    0.0000 C   0  0  0  0  0  0  0  0  0  0  0  0
   -5.7783   -2.4084    0.0000 N   0  0  0  0  0  0  0  0  0  0  0  0
   -5.0065   -2.7000    0.0000 C   0  0  0  0  0  0  0  0  0  0  0  0
   -4.4908   -2.0561    0.0000 C   0  0  0  0  0  0  0  0  0  0  0  0
   -3.6752   -2.1808    0.0000 N   0  0  0  0  0  0  0  0  0  0  0  0
   -3.3755   -2.9494    0.0000 C   0  0  0  0  0  0  0  0  0  0  0  0
   -3.8913   -3.5933    0.0000 N   0  0  0  0  0  0  0  0  0  0  0  0
   -4.7068   -3.4686    0.0000 C   0  0  0  0  0  0  0  0  0  0  0  0
   -5.2226   -4.1125    0.0000 N   0  0  0  0  0  0  0  0  0  0  0  0
    2.6257    0.4059    0.0000 C   0  0  1  0  0  0  0  0  0  0  0  0
    2.6732   -0.4178    0.0000 O   0  0  0  0  0  0  0  0  0  0  0  0
    3.3152    0.8588    0.0000 C   0  0  0  0  0  0  0  0  0  0  0  0
    3.2676    1.6825    0.0000 O   0  0  0  0  0  0  0  0  0  0  0  0
    4.0522    0.4882    0.0000 N   0  0  0  0  0  0  0  0  0  0  0  0
    4.7418    0.9412    0.0000 C   0  0  0  0  0  0  0  0  0  0  0  0
    5.4788    0.5706    0.0000 C   0  0  0  0  0  0  0  0  0  0  0  0
    6.1683    1.0236    0.0000 C   0  0  0  0  0  0  0  0  0  0  0  0
    6.1208    1.8472    0.0000 O   0  0  0  0  0  0  0  0  0  0  0  0
    6.9054    0.6529    0.0000 N   0  0  0  0  0  0  0  0  0  0  0  0
    7.5949    1.1059    0.0000 C   0  0  0  0  0  0  0  0  0  0  0  0
    8.3319    0.7353    0.0000 C   0  0  0  0  0  0  0  0  0  0  0  0
    9.0215    1.1883    0.0000 S   0  0  0  0  0  0  0  0  0  0  0  0
    9.7585    0.8177    0.0000 C   0  0  0  0  0  0  0  0  0  0  0  0
    9.8061   -0.0060    0.0000 O   0  0  0  0  0  0  0  0  0  0  0  0
   10.4480    1.2707    0.0000 C   0  0  0  0  0  0  0  0  0  0  0  0
   11.1851    0.9000    0.0000 C   0  0  0  0  0  0  0  0  0  0  0  0
   11.8746    1.3530    0.0000 O   0  0  0  0  0  0  0  0  0  0  0  0
   11.2326    0.0764    0.0000 O   0  0  0  0  0  0  0  0  0  0  0  0
  1  2  1  0  0  0  0
  2  3  1  0  0  0  0
  2  4  1  0  0  0  0
  4  5  1  0  0  0  0
  6  5  1  1  0  0  0
  6  7  1  6  0  0  0
  6  8  2  0  0  0  0
  6  9  1  0  0  0  0
 10  9  1  6  0  0  0
 10 11  1  1  0  0  0
 10 12  2  0  0  0  0
 10 13  1  0  0  0  0
 13 14  1  0  0  0  0
 15 14  1  6  0  0  0
 15 16  1  0  0  0  0
 16 17  1  0  0  0  0
 17 18  1  0  0  0  0
 18 19  1  6  0  0  0
 18 20  1  0  0  0  0
 15 20  1  0  0  0  0
 20 21  1  1  0  0  0
 21 22  1  0  0  0  0
 22 23  1  0  0  0  0
 22 24  1  0  0  0  0
 22 25  2  0  0  0  0
 17 26  1  1  0  0  0
 26 27  1  0  0  0  0
 27 28  2  0  0  0  0
 28 29  1  0  0  0  0
 29 30  2  0  0  0  0
 26 30  1  0  0  0  0
 30 31  1  0  0  0  0
 31 32  2  0  0  0  0
 32 33  1  0  0  0  0
 33 34  2  0  0  0  0
 29 34  1  0  0  0  0
 34 35  1  0  0  0  0
  2 36  1  0  0  0  0
 36 37  1  6  0  0  0
 36 38  1  0  0  0  0
 38 39  2  0  0  0  0
 38 40  1  0  0  0  0
 40 41  1  0  0  0  0
 41 42  1  0  0  0  0
 42 43  1  0  0  0  0
 43 44  2  0  0  0  0
 43 45  1  0  0  0  0
 45 46  1  0  0  0  0
 46 47  1  0  0  0  0
 47 48  1  0  0  0  0
 48 49  1  0  0  0  0
 49 50  2  0  0  0  0
 49 51  1  0  0  0  0
 51 52  1  0  0  0  0
 52 53  1  0  0  0  0
 52 54  2  0  0  0  0
M  END
> <DRUGBANK_ID>
DB04524

> <DRUG_GROUPS>
experimental

> <GENERIC_NAME>
Malonyl-Coenzyme A

> <CHEMICAL_FORMULA>
C24H38N7O19P3S

> <MOLECULAR_WEIGHT>
853.58

> <EXACT_MASS>
853.115602295

> <IUPAC_NAME>
3-[(2-{3-[(2R)-3-[({[({[(2S,3R,4R,5R)-5-(6-amino-9H-purin-9-yl)-4-hydroxy-3-(phosphonooxy)oxolan-2-yl]methoxy}(hydroxy)phosphoryl)oxy](hydroxy)phosphoryl}oxy)methyl]-2-hydroxy-3-methylbutanamido]propanamido}ethyl)sulfanyl]-3-oxopropanoic acid

> <IUPAC_TRADITIONAL_NAME>
3-[(2-{3-[(2R)-3-{[({[(2S,3R,4R,5R)-5-(6-aminopurin-9-yl)-4-hydroxy-3-(phosphonooxy)oxolan-2-yl]methoxy(hydroxy)phosphoryl}oxy(hydroxy)phosphoryl)oxy]methyl}-2-hydroxy-3-methylbutanamido]propanamido}ethyl)sulfanyl]-3-oxopropanoic acid

> <INCHI_IDENTIFIER>
InChI=1S/C24H38N7O19P3S/c1-24(2,19(37)22(38)27-4-3-13(32)26-5-6-54-15(35)7-14(33)34)9-47-53(44,45)50-52(42,43)46-8-12-18(49-51(39,40)41)17(36)23(48-12)31-11-30-16-20(25)28-10-29-21(16)31/h10-12,17-19,23,36-37H,3-9H2,1-2H3,(H,26,32)(H,27,38)(H,33,34)(H,42,43)(H,44,45)(H2,25,28,29)(H2,39,40,41)/t12-,17+,18-,19-,23+/m0/s1

> <INCHI_KEY>
InChIKey=LTYOQGRJFJAKNA-IJCONWDESA-N

> <SMILES>
CC(C)(CO[P@](O)(=O)O[P@@](O)(=O)OC[C@@H]1O[C@H]([C@H](O)[C@H]1OP(O)(O)=O)N1C=NC2=C1N=CN=C2N)[C@@H](O)C(=O)NCCC(=O)NCCSC(=O)CC(O)=O

> <JCHEM_ACCEPTOR_COUNT>
19

> <JCHEM_DONOR_COUNT>
10

> <JCHEM_ACIDIC_PKA>
0.82

> <JCHEM_BASIC_PKA>
4.97

> <JCHEM_PHYSIOLOGICAL_CHARGE>
-5

> <ALOGPS_LOGP>
-0.62

> <JCHEM_LOGP>
-7.1

> <ALOGPS_LOGS>
-2.4

> <JCHEM_POLARIZABILITY>
74.19

> <JCHEM_POLAR_SURFACE_AREA>
400.93

> <JCHEM_REFRACTIVITY>
178.55

> <JCHEM_ROTATABLE_BOND_COUNT>
22

> <ALOGPS_SOLUBILITY>
3.80e+00 g/l __ 

$$$$
