
  Mrv0541 02231217252D          

 10  9  0  0  0  0            999 V2000
    2.2836    2.1434    0.0000 C   0  0  0  0  0  0  0  0  0  0  0  0
    2.9980    2.5559    0.0000 C   0  0  0  0  0  0  0  0  0  0  0  0
    3.7125    2.1434    0.0000 C   0  0  0  0  0  0  0  0  0  0  0  0
    4.4270    2.5559    0.0000 C   0  0  0  0  0  0  0  0  0  0  0  0
    5.1414    2.1434    0.0000 C   0  0  0  0  0  0  0  0  0  0  0  0
    5.8559    2.5559    0.0000 C   0  0  0  0  0  0  0  0  0  0  0  0
    6.5704    2.1434    0.0000 C   0  0  0  0  0  0  0  0  0  0  0  0
    7.2849    2.5559    0.0000 N   0  0  0  0  0  0  0  0  0  0  0  0
    7.9993    2.1434    0.0000 C   0  0  0  0  0  0  0  0  0  0  0  0
    8.7138    2.5559    0.0000 O   0  0  0  0  0  0  0  0  0  0  0  0
  1  2  1  0  0  0  0
  2  3  1  0  0  0  0
  3  4  1  0  0  0  0
  4  5  1  0  0  0  0
  5  6  1  0  0  0  0
  6  7  1  0  0  0  0
  7  8  1  0  0  0  0
  8  9  1  0  0  0  0
  9 10  2  0  0  0  0
M  END
> <DRUGBANK_ID>
DB04105

> <DRUG_GROUPS>
experimental

> <GENERIC_NAME>
N-Heptylformamide

> <CHEMICAL_FORMULA>
C8H17NO

> <MOLECULAR_WEIGHT>
143.2267

> <EXACT_MASS>
143.131014171

> <IUPAC_NAME>
N-heptylformamide

> <IUPAC_TRADITIONAL_NAME>
N-heptylformamide

> <INCHI_IDENTIFIER>
InChI=1S/C8H17NO/c1-2-3-4-5-6-7-9-8-10/h8H,2-7H2,1H3,(H,9,10)

> <INCHI_KEY>
InChIKey=YAUHDTOEJHVKJO-UHFFFAOYSA-N

> <SMILES>
CCCCCCCNC=O

> <JCHEM_ACCEPTOR_COUNT>
1

> <JCHEM_DONOR_COUNT>
1

> <JCHEM_ACIDIC_PKA>
16.88

> <JCHEM_BASIC_PKA>
-0.38

> <JCHEM_PHYSIOLOGICAL_CHARGE>
0

> <ALOGPS_LOGP>
2.26

> <JCHEM_LOGP>
1.8

> <ALOGPS_LOGS>
-1.9

> <JCHEM_POLARIZABILITY>
17.99

> <JCHEM_POLAR_SURFACE_AREA>
29.1

> <JCHEM_REFRACTIVITY>
42.55

> <JCHEM_ROTATABLE_BOND_COUNT>
6

> <ALOGPS_SOLUBILITY>
1.73e+00 g/l __ 

$$$$
