
  Mrv0541 02231217312D          

  7  6  0  0  1  0            999 V2000
    2.0625    0.7145    0.0000 N   0  0  0  0  0  0  0  0  0  0  0  0
    1.2375    0.7145    0.0000 C   0  0  1  0  0  0  0  0  0  0  0  0
    0.8250    1.4289    0.0000 C   0  0  0  0  0  0  0  0  0  0  0  0
    0.4125    2.1434    0.0000 C   0  0  0  0  0  0  0  0  0  0  0  0
    0.8250    0.0000    0.0000 C   0  0  0  0  0  0  0  0  0  0  0  0
    1.2375   -0.7145    0.0000 O   0  0  0  0  0  0  0  0  0  0  0  0
    0.0000    0.0000    0.0000 O   0  0  0  0  0  0  0  0  0  0  0  0
  2  1  1  6  0  0  0
  2  3  1  0  0  0  0
  3  4  3  0  0  0  0
  2  5  1  0  0  0  0
  5  6  1  0  0  0  0
  5  7  2  0  0  0  0
M  END
> <DRUGBANK_ID>
DB04217

> <DRUG_GROUPS>
experimental

> <GENERIC_NAME>
L-2-amino-3-butynoic acid

> <SYNONYMS>


> <CHEMICAL_FORMULA>
C4H5NO2

> <MOLECULAR_WEIGHT>
99.088

> <EXACT_MASS>
99.032028409

> <IUPAC_NAME>
(2S)-2-aminobut-3-ynoic acid

> <IUPAC_TRADITIONAL_NAME>
L-2-amino-3-butynoic acid

> <INCHI_IDENTIFIER>
InChI=1S/C4H5NO2/c1-2-3(5)4(6)7/h1,3H,5H2,(H,6,7)/t3-/m0/s1

> <INCHI_KEY>
InChIKey=DSUAJFIEKRKPEE-VKHMYHEASA-N

> <SMILES>
N[C@@H](C#C)C(O)=O

> <JCHEM_ACCEPTOR_COUNT>
3

> <JCHEM_DONOR_COUNT>
2

> <JCHEM_ACIDIC_PKA>
1.66

> <JCHEM_BASIC_PKA>
8.3

> <JCHEM_PHYSIOLOGICAL_CHARGE>
0

> <ALOGPS_LOGP>
-2.2

> <JCHEM_LOGP>
-3

> <ALOGPS_LOGS>
-1.8

> <JCHEM_POLARIZABILITY>
9.09

> <JCHEM_POLAR_SURFACE_AREA>
63.32

> <JCHEM_REFRACTIVITY>
23.33

> <JCHEM_ROTATABLE_BOND_COUNT>
1

> <ALOGPS_SOLUBILITY>
1.50e+00 g/l __ 

$$$$
