
  Mrv0541 02231217242D          

  6  5  0  0  0  0            999 V2000
    2.4750   -1.4289    0.0000 O   0  0  0  0  0  0  0  0  0  0  0  0
    2.0625   -0.7145    0.0000 C   0  0  0  0  0  0  0  0  0  0  0  0
    1.2375   -0.7145    0.0000 C   0  0  0  0  0  0  0  0  0  0  0  0
    0.8250   -1.4289    0.0000 O   0  0  0  0  0  0  0  0  0  0  0  0
    0.8250    0.0000    0.0000 C   0  0  0  0  0  0  0  0  0  0  0  0
    0.0000    0.0000    0.0000 O   0  0  0  0  0  0  0  0  0  0  0  0
  1  2  1  0  0  0  0
  2  3  1  0  0  0  0
  3  4  1  0  0  0  0
  3  5  1  0  0  0  0
  5  6  1  0  0  0  0
M  END
> <DRUGBANK_ID>
DB04077

> <DRUG_GROUPS>
experimental

> <GENERIC_NAME>
Glycerol

> <CHEMICAL_FORMULA>
C3H8O3

> <MOLECULAR_WEIGHT>
92.0938

> <EXACT_MASS>
92.047344122

> <IUPAC_NAME>
propane-1,2,3-triol

> <IUPAC_TRADITIONAL_NAME>
glycerol

> <INCHI_IDENTIFIER>
InChI=1S/C3H8O3/c4-1-3(6)2-5/h3-6H,1-2H2

> <INCHI_KEY>
InChIKey=PEDCQBHIVMGVHV-UHFFFAOYSA-N

> <SMILES>
OCC(O)CO

> <JCHEM_ACCEPTOR_COUNT>
3

> <JCHEM_DONOR_COUNT>
3

> <JCHEM_ACIDIC_PKA>
13.61

> <JCHEM_BASIC_PKA>
-3

> <JCHEM_PHYSIOLOGICAL_CHARGE>
0

> <ALOGPS_LOGP>
-1.9

> <JCHEM_LOGP>
-1.8

> <ALOGPS_LOGS>
1.1

> <JCHEM_POLARIZABILITY>
8.93

> <JCHEM_POLAR_SURFACE_AREA>
60.69

> <JCHEM_REFRACTIVITY>
20.52

> <JCHEM_ROTATABLE_BOND_COUNT>
2

> <ALOGPS_SOLUBILITY>
1.17e+03 g/l __ 

$$$$
