
  Mrv0541 02231217442D          

 30 31  0  0  1  0            999 V2000
    0.0179   -0.6474    0.0000 C   0  0  0  0  0  0  0  0  0  0  0  0
    0.0179   -1.4724    0.0000 C   0  0  0  0  0  0  0  0  0  0  0  0
    0.6854   -1.9573    0.0000 N   0  0  0  0  0  0  0  0  0  0  0  0
    0.4304   -2.7419    0.0000 C   0  0  2  0  0  0  0  0  0  0  0  0
    0.9154   -3.4094    0.0000 C   0  0  0  0  0  0  0  0  0  0  0  0
    1.7358   -3.3231    0.0000 C   0  0  0  0  0  0  0  0  0  0  0  0
    2.1483   -2.6087    0.0000 N   0  0  0  0  0  0  0  0  0  0  0  0
    2.9553   -2.7802    0.0000 C   0  0  0  0  0  0  0  0  0  0  0  0
    3.0416   -3.6007    0.0000 C   0  0  0  0  0  0  0  0  0  0  0  0
    3.7560   -4.0132    0.0000 C   0  0  0  0  0  0  0  0  0  0  0  0
    4.4705   -3.6007    0.0000 C   0  0  0  0  0  0  0  0  0  0  0  0
    5.1850   -4.0132    0.0000 C   0  0  0  0  0  0  0  0  0  0  0  0
    5.8994   -3.6007    0.0000 O   0  0  0  0  0  0  0  0  0  0  0  0
    5.1850   -4.8382    0.0000 O   0  0  0  0  0  0  0  0  0  0  0  0
    2.2879   -3.9362    0.0000 C   0  0  0  0  0  0  0  0  0  0  0  0
    2.1163   -4.7432    0.0000 C   0  0  0  0  0  0  0  0  0  0  0  0
    2.7294   -5.2952    0.0000 C   0  0  0  0  0  0  0  0  0  0  0  0
    3.5141   -5.0403    0.0000 O   0  0  0  0  0  0  0  0  0  0  0  0
    2.5579   -6.1022    0.0000 O   0  0  0  0  0  0  0  0  0  0  0  0
   -0.3946   -2.7419    0.0000 C   0  0  0  0  0  0  0  0  0  0  0  0
   -0.8795   -3.4094    0.0000 C   0  0  0  0  0  0  0  0  0  0  0  0
   -0.5439   -4.1631    0.0000 C   0  0  0  0  0  0  0  0  0  0  0  0
   -1.0288   -4.8305    0.0000 C   0  0  0  0  0  0  0  0  0  0  0  0
   -1.8493   -4.7443    0.0000 O   0  0  0  0  0  0  0  0  0  0  0  0
   -0.6933   -5.5842    0.0000 O   0  0  0  0  0  0  0  0  0  0  0  0
   -0.6495   -1.9573    0.0000 C   0  0  0  0  0  0  0  0  0  0  0  0
   -1.4341   -1.7024    0.0000 C   0  0  0  0  0  0  0  0  0  0  0  0
   -2.0472   -2.2544    0.0000 C   0  0  0  0  0  0  0  0  0  0  0  0
   -1.8757   -3.0614    0.0000 O   0  0  0  0  0  0  0  0  0  0  0  0
   -2.8318   -1.9995    0.0000 O   0  0  0  0  0  0  0  0  0  0  0  0
  1  2  1  0  0  0  0
  2  3  2  0  0  0  0
  3  4  1  0  0  0  0
  4  5  1  6  0  0  0
  5  6  1  0  0  0  0
  6  7  2  0  0  0  0
  7  8  1  0  0  0  0
  8  9  1  0  0  0  0
  9 10  1  0  0  0  0
 10 11  1  0  0  0  0
 11 12  1  0  0  0  0
 12 13  1  0  0  0  0
 12 14  2  0  0  0  0
  9 15  2  0  0  0  0
  6 15  1  0  0  0  0
 15 16  1  0  0  0  0
 16 17  1  0  0  0  0
 17 18  1  0  0  0  0
 17 19  2  0  0  0  0
  4 20  1  0  0  0  0
 20 21  1  0  0  0  0
 21 22  1  0  0  0  0
 22 23  1  0  0  0  0
 23 24  1  0  0  0  0
 23 25  2  0  0  0  0
 20 26  2  0  0  0  0
  2 26  1  0  0  0  0
 26 27  1  0  0  0  0
 27 28  1  0  0  0  0
 28 29  1  0  0  0  0
 28 30  2  0  0  0  0
M  END
> <DRUGBANK_ID>
DB04517

> <DRUG_GROUPS>
experimental

> <GENERIC_NAME>
Dipyrromethane Cofactor

> <CHEMICAL_FORMULA>
C20H24N2O8

> <MOLECULAR_WEIGHT>
420.4132

> <EXACT_MASS>
420.153265754

> <IUPAC_NAME>
3-[(2R)-2-{[3-(2-carboxyethyl)-4-(carboxymethyl)-2H-pyrrol-5-yl]methyl}-4-(carboxymethyl)-5-methyl-2H-pyrrol-3-yl]propanoic acid

> <IUPAC_TRADITIONAL_NAME>
dipyrromethane cofactor

> <INCHI_IDENTIFIER>
InChI=1S/C20H24N2O8/c1-10-13(6-19(27)28)12(3-5-18(25)26)16(22-10)8-15-14(7-20(29)30)11(9-21-15)2-4-17(23)24/h16H,2-9H2,1H3,(H,23,24)(H,25,26)(H,27,28)(H,29,30)/t16-/m1/s1

> <INCHI_KEY>
InChIKey=PIVMSLFNTMAVDI-MRXNPFEDSA-N

> <SMILES>
CC1=N[C@H](CC2=NCC(CCC(O)=O)=C2CC(O)=O)C(CCC(O)=O)=C1CC(O)=O

> <JCHEM_ACCEPTOR_COUNT>
10

> <JCHEM_DONOR_COUNT>
4

> <JCHEM_ACIDIC_PKA>
2.6

> <JCHEM_BASIC_PKA>
6.63

> <JCHEM_PHYSIOLOGICAL_CHARGE>
-4

> <ALOGPS_LOGP>
0.18

> <JCHEM_LOGP>
-3.4

> <ALOGPS_LOGS>
-4

> <JCHEM_POLARIZABILITY>
42.23

> <JCHEM_POLAR_SURFACE_AREA>
173.92

> <JCHEM_REFRACTIVITY>
103.32

> <JCHEM_ROTATABLE_BOND_COUNT>
12

> <ALOGPS_SOLUBILITY>
4.07e-02 g/l __ 

$$$$
