WRB
  Mrv0541 02231217212D          

 22 23  0  0  0  0            999 V2000
   -1.8217   -0.5007    0.0000 C    0  0  0  0  0  0  0  0  0  0  0  0
   -2.5361   -0.9132    0.0000 N    0  0  0  0  0  0  0  0  0  0  0  0
   -3.2506   -0.5007    0.0000 C    0  0  0  0  0  0  0  0  0  0  0  0
   -3.2506    0.3243    0.0000 N    0  0  0  0  0  0  0  0  0  0  0  0
   -2.5361    0.7368    0.0000 C    0  0  0  0  0  0  0  0  0  0  0  0
   -1.8217    0.3243    0.0000 N    0  0  0  0  0  0  0  0  0  0  0  0
   -1.1072    0.7368    0.0000 O    0  0  0  0  0  0  0  0  0  0  0  0
   -0.3927    0.3243    0.0000 C    0  0  0  0  0  0  0  0  0  0  0  0
    0.3217    0.7368    0.0000 C    0  0  0  0  0  0  0  0  0  0  0  0
    1.0362    0.3243    0.0000 C    0  0  0  0  0  0  0  0  0  0  0  0
    1.7507    0.7368    0.0000 O    0  0  0  0  0  0  0  0  0  0  0  0
    2.4651    0.3243    0.0000 C    0  0  0  0  0  0  0  0  0  0  0  0
    3.1796    0.7368    0.0000 C    0  0  0  0  0  0  0  0  0  0  0  0
    3.8941    0.3243    0.0000 C    0  0  0  0  0  0  0  0  0  0  0  0
    2.4651   -0.5007    0.0000 C    0  0  0  0  0  0  0  0  0  0  0  0
    3.1796   -0.9132    0.0000 C    0  0  0  0  0  0  0  0  0  0  0  0
    3.8941   -0.5007    0.0000 C    0  0  0  0  0  0  0  0  0  0  0  0
   -1.3845   -1.2004    0.0000 C    0  0  0  0  0  0  0  0  0  0  0  0
   -0.9972   -0.5295    0.0000 C    0  0  0  0  0  0  0  0  0  0  0  0
   -3.9651   -0.9132    0.0000 N    0  0  0  0  0  0  0  0  0  0  0  0
   -2.5361    1.5618    0.0000 N    0  0  0  0  0  0  0  0  0  0  0  0
    4.6086   -0.9132    0.0000 Br   0  0  0  0  0  0  0  0  0  0  0  0
  1  2  1  0  0  0  0
  1  6  1  0  0  0  0
  1 18  1  0  0  0  0
  1 19  1  0  0  0  0
  2  3  2  0  0  0  0
  3  4  1  0  0  0  0
  3 20  1  0  0  0  0
  4  5  2  0  0  0  0
  5  6  1  0  0  0  0
  5 21  1  0  0  0  0
  6  7  1  0  0  0  0
  7  8  1  0  0  0  0
  8  9  1  0  0  0  0
  9 10  1  0  0  0  0
 10 11  1  0  0  0  0
 11 12  1  0  0  0  0
 12 13  2  0  0  0  0
 12 15  1  0  0  0  0
 13 14  1  0  0  0  0
 14 17  2  0  0  0  0
 15 16  2  0  0  0  0
 16 17  1  0  0  0  0
 17 22  1  0  0  0  0
M  END
> <DRUGBANK_ID>
DB04007

> <DRUG_GROUPS>
experimental

> <GENERIC_NAME>
Bromo-WR99210

> <CHEMICAL_FORMULA>
C14H20BrN5O2

> <MOLECULAR_WEIGHT>
370.245

> <EXACT_MASS>
369.080037556

> <IUPAC_NAME>
1-[3-(4-bromophenoxy)propoxy]-6,6-dimethyl-1,6-dihydro-1,3,5-triazine-2,4-diamine

> <IUPAC_TRADITIONAL_NAME>
bromo-WR99210

> <INCHI_IDENTIFIER>
InChI=1S/C14H20BrN5O2/c1-14(2)19-12(16)18-13(17)20(14)22-9-3-8-21-11-6-4-10(15)5-7-11/h4-7H,3,8-9H2,1-2H3,(H4,16,17,18,19)

> <INCHI_KEY>
InChIKey=MPXYCOHVHSXSDC-UHFFFAOYSA-N

> <SMILES>
CC1(C)N=C(N)N=C(N)N1OCCCOC1=CC=C(Br)C=C1

> <JCHEM_ACCEPTOR_COUNT>
7

> <JCHEM_DONOR_COUNT>
2

> <JCHEM_ACIDIC_PKA>
20

> <JCHEM_BASIC_PKA>
7.63

> <JCHEM_PHYSIOLOGICAL_CHARGE>
1

> <ALOGPS_LOGP>
1.9

> <JCHEM_LOGP>
1.76

> <ALOGPS_LOGS>
-4

> <JCHEM_POLARIZABILITY>
34.96

> <JCHEM_POLAR_SURFACE_AREA>
98.46

> <JCHEM_REFRACTIVITY>
87.53

> <JCHEM_ROTATABLE_BOND_COUNT>
6

> <ALOGPS_SOLUBILITY>
4.12e-02 g/l __ 

$$$$
