
  Mrv0541 02231217212D          

  9  8  0  0  1  0            999 V2000
    1.7605    1.8414    0.0000 C   0  0  0  0  0  0  0  0  0  0  0  0
    2.4750    1.4289    0.0000 S   0  0  0  0  0  0  0  0  0  0  0  0
    3.1895    1.8414    0.0000 C   0  0  0  0  0  0  0  0  0  0  0  0
    3.9039    1.4289    0.0000 C   0  0  0  0  0  0  0  0  0  0  0  0
    4.6184    1.8414    0.0000 C   0  0  2  0  0  0  0  0  0  0  0  0
    4.6184    2.6664    0.0000 N   0  0  0  0  0  0  0  0  0  0  0  0
    5.3329    1.4289    0.0000 P   0  0  1  0  0  0  0  0  0  0  0  0
    6.0474    1.8414    0.0000 O   0  0  0  0  0  0  0  0  0  0  0  0
    5.3329    0.6039    0.0000 O   0  0  0  0  0  0  0  0  0  0  0  0
  1  2  1  0  0  0  0
  2  3  1  0  0  0  0
  3  4  1  0  0  0  0
  4  5  1  0  0  0  0
  5  6  1  6  0  0  0
  5  7  1  0  0  0  0
  7  8  1  1  0  0  0
  7  9  2  0  0  0  0
M  END
> <DRUGBANK_ID>
DB04015

> <DRUG_GROUPS>
experimental

> <GENERIC_NAME>
Methionine Phosphinate

> <CHEMICAL_FORMULA>
C4H12NO2PS

> <MOLECULAR_WEIGHT>
169.182

> <EXACT_MASS>
169.032635835

> <IUPAC_NAME>
[(1R)-1-amino-3-(methylsulfanyl)propyl]phosphinic acid

> <IUPAC_TRADITIONAL_NAME>
(1R)-1-amino-3-(methylsulfanyl)propylphosphinic acid

> <INCHI_IDENTIFIER>
InChI=1S/C4H12NO2PS/c1-9-3-2-4(5)8(6)7/h4,8H,2-3,5H2,1H3,(H,6,7)/t4-/m1/s1

> <INCHI_KEY>
InChIKey=CZRBNMUARBZMHQ-SCSAIBSYSA-N

> <SMILES>
CSCC[C@H](N)P(O)=O

> <JCHEM_ACCEPTOR_COUNT>
3

> <JCHEM_DONOR_COUNT>
2

> <JCHEM_ACIDIC_PKA>
0.25

> <JCHEM_BASIC_PKA>
9.84

> <JCHEM_PHYSIOLOGICAL_CHARGE>
0

> <ALOGPS_LOGP>
-1.3

> <JCHEM_LOGP>
-1.7

> <ALOGPS_LOGS>
-0.76

> <JCHEM_POLARIZABILITY>
16.34

> <JCHEM_POLAR_SURFACE_AREA>
63.32

> <JCHEM_REFRACTIVITY>
39.91

> <JCHEM_ROTATABLE_BOND_COUNT>
4

> <ALOGPS_SOLUBILITY>
2.97e+01 g/l __ 

$$$$
