
  Mrv0541 02231217362D          

 16 16  0  0  1  0            999 V2000
    2.1434    1.2375    0.0000 O   0  0  0  0  0  0  0  0  0  0  0  0
    1.4289    0.8250    0.0000 C   0  0  1  0  0  0  0  0  0  0  0  0
    1.4289    0.0000    0.0000 C   0  0  0  0  0  0  0  0  0  0  0  0
    0.7145   -0.4125    0.0000 C   0  0  0  0  0  0  0  0  0  0  0  0
    0.0000    0.0000    0.0000 C   0  0  0  0  0  0  0  0  0  0  0  0
    0.0000    0.8250    0.0000 C   0  0  2  0  0  0  0  0  0  0  0  0
   -0.7145    1.2375    0.0000 O   0  0  0  0  0  0  0  0  0  0  0  0
   -0.7145    2.0625    0.0000 P   0  0  0  0  0  0  0  0  0  0  0  0
   -0.7145    2.8875    0.0000 O   0  0  0  0  0  0  0  0  0  0  0  0
   -1.5395    2.0625    0.0000 O   0  0  0  0  0  0  0  0  0  0  0  0
    0.1105    2.0625    0.0000 O   0  0  0  0  0  0  0  0  0  0  0  0
    0.7145    1.2375    0.0000 C   0  0  2  0  0  0  0  0  0  0  0  0
    0.7145    2.0625    0.0000 O   0  0  0  0  0  0  0  0  0  0  0  0
    0.7145   -1.2375    0.0000 C   0  0  0  0  0  0  0  0  0  0  0  0
    1.4289   -1.6500    0.0000 O   0  0  0  0  0  0  0  0  0  0  0  0
    0.0000   -1.6500    0.0000 O   0  0  0  0  0  0  0  0  0  0  0  0
  2  1  1  1  0  0  0
  2  3  1  0  0  0  0
  3  4  1  0  0  0  0
  4  5  2  0  0  0  0
  5  6  1  0  0  0  0
  6  7  1  6  0  0  0
  7  8  1  0  0  0  0
  8  9  1  0  0  0  0
  8 10  1  0  0  0  0
  8 11  2  0  0  0  0
  6 12  1  0  0  0  0
  2 12  1  0  0  0  0
 12 13  1  6  0  0  0
  4 14  1  0  0  0  0
 14 15  1  0  0  0  0
 14 16  2  0  0  0  0
M  END
> <DRUGBANK_ID>
DB04328

> <DRUG_GROUPS>
experimental

> <GENERIC_NAME>
Shikimate-3-Phosphate

> <CHEMICAL_FORMULA>
C7H11O8P

> <MOLECULAR_WEIGHT>
254.1312

> <EXACT_MASS>
254.01915384

> <IUPAC_NAME>
(3S,4R,5S)-4,5-dihydroxy-3-(phosphonooxy)cyclohex-1-ene-1-carboxylic acid

> <IUPAC_TRADITIONAL_NAME>
shikimate-3-phosphate

> <INCHI_IDENTIFIER>
InChI=1S/C7H11O8P/c8-4-1-3(7(10)11)2-5(6(4)9)15-16(12,13)14/h2,4-6,8-9H,1H2,(H,10,11)(H2,12,13,14)/t4-,5-,6+/m0/s1

> <INCHI_KEY>
InChIKey=QYOJSKGCWNAKGW-HCWXCVPCSA-N

> <SMILES>
O[C@H]1CC(=C[C@H](OP(O)(O)=O)[C@@H]1O)C(O)=O

> <JCHEM_ACCEPTOR_COUNT>
7

> <JCHEM_DONOR_COUNT>
5

> <JCHEM_ACIDIC_PKA>
1.32

> <JCHEM_BASIC_PKA>
-3.2

> <JCHEM_PHYSIOLOGICAL_CHARGE>
-3

> <ALOGPS_LOGP>
-2.1

> <JCHEM_LOGP>
-1.8

> <ALOGPS_LOGS>
-1.1

> <JCHEM_POLARIZABILITY>
20.47

> <JCHEM_POLAR_SURFACE_AREA>
144.52

> <JCHEM_REFRACTIVITY>
49.83

> <JCHEM_ROTATABLE_BOND_COUNT>
3

> <ALOGPS_SOLUBILITY>
2.10e+01 g/l __ 

$$$$
