
  Mrv0541 02231218002D          

 25 26  0  0  0  0            999 V2000
    4.5080    3.4921    0.0000 O   0  0  0  0  0  0  0  0  0  0  0  0
    3.0791   -3.1081    0.0000 N   0  0  0  0  0  0  0  0  0  0  0  0
    5.9370    1.0170    0.0000 N   0  0  0  0  0  0  0  0  0  0  0  0
    7.3889    1.8134    0.0000 N   0  0  0  0  0  0  0  0  0  0  0  0
    4.5080   -1.4581    0.0000 C   0  0  0  0  0  0  0  0  0  0  0  0
    3.7935   -1.8706    0.0000 C   0  0  0  0  0  0  0  0  0  0  0  0
    4.5080   -0.6330    0.0000 C   0  0  0  0  0  0  0  0  0  0  0  0
    3.7935   -2.6956    0.0000 C   0  0  0  0  0  0  0  0  0  0  0  0
    5.2224   -0.2205    0.0000 C   0  0  0  0  0  0  0  0  0  0  0  0
    5.2224    0.6045    0.0000 C   0  0  0  0  0  0  0  0  0  0  0  0
    3.0791   -3.9331    0.0000 C   0  0  0  0  0  0  0  0  0  0  0  0
    2.3645   -2.6956    0.0000 C   0  0  0  0  0  0  0  0  0  0  0  0
    5.9370    1.8420    0.0000 C   0  0  0  0  0  0  0  0  0  0  0  0
    2.3645   -4.3456    0.0000 C   0  0  0  0  0  0  0  0  0  0  0  0
    1.6500   -3.1081    0.0000 C   0  0  0  0  0  0  0  0  0  0  0  0
    6.6515    2.2545    0.0000 C   0  0  0  0  0  0  0  0  0  0  0  0
    6.6515    3.0795    0.0000 C   0  0  0  0  0  0  0  0  0  0  0  0
    5.2224    2.2545    0.0000 C   0  0  0  0  0  0  0  0  0  0  0  0
    7.3889    3.5207    0.0000 C   0  0  0  0  0  0  0  0  0  0  0  0
    5.9370    3.4921    0.0000 C   0  0  0  0  0  0  0  0  0  0  0  0
    5.2224    3.0795    0.0000 C   0  0  0  0  0  0  0  0  0  0  0  0
    8.1365    3.0967    0.0000 C   0  0  0  0  0  0  0  0  0  0  0  0
    7.3795    4.3456    0.0000 C   0  0  0  0  0  0  0  0  0  0  0  0
    8.1365    2.2374    0.0000 C   0  0  0  0  0  0  0  0  0  0  0  0
    4.5080    4.3171    0.0000 C   0  0  0  0  0  0  0  0  0  0  0  0
  1 21  1  0  0  0  0
  1 25  1  0  0  0  0
  2  8  1  0  0  0  0
  2 11  1  0  0  0  0
  2 12  1  0  0  0  0
  3 10  1  0  0  0  0
  3 13  1  0  0  0  0
  4 16  2  0  0  0  0
  4 24  1  0  0  0  0
  5  6  1  0  0  0  0
  5  7  1  0  0  0  0
  6  8  1  0  0  0  0
  7  9  1  0  0  0  0
  9 10  1  0  0  0  0
 11 14  1  0  0  0  0
 12 15  1  0  0  0  0
 13 16  1  0  0  0  0
 13 18  2  0  0  0  0
 16 17  1  0  0  0  0
 17 19  2  0  0  0  0
 17 20  1  0  0  0  0
 18 21  1  0  0  0  0
 19 22  1  0  0  0  0
 19 23  1  0  0  0  0
 20 21  2  0  0  0  0
 22 24  2  0  0  0  0
M  END
> <DRUGBANK_ID>
DB04909

> <DRUG_GROUPS>
investigational

> <GENERIC_NAME>
Sitamaquine

> <SYNONYMS>


> <CHEMICAL_FORMULA>
C21H33N3O

> <MOLECULAR_WEIGHT>
343.5062

> <EXACT_MASS>
343.262362693

> <IUPAC_NAME>
diethyl({6-[(6-methoxy-4-methylquinolin-8-yl)amino]hexyl})amine

> <IUPAC_TRADITIONAL_NAME>
diethyl({6-[(6-methoxy-4-methylquinolin-8-yl)amino]hexyl})amine

> <INCHI_IDENTIFIER>
InChI=1S/C21H33N3O/c1-5-24(6-2)14-10-8-7-9-12-22-20-16-18(25-4)15-19-17(3)11-13-23-21(19)20/h11,13,15-16,22H,5-10,12,14H2,1-4H3

> <INCHI_KEY>
InChIKey=RVAKDGYPIVSYEU-UHFFFAOYSA-N

> <SMILES>
CCN(CC)CCCCCCNC1=CC(OC)=CC2=C(C)C=CN=C12

> <JCHEM_ACCEPTOR_COUNT>
4

> <JCHEM_DONOR_COUNT>
1

> <JCHEM_ACIDIC_PKA>
17.89

> <JCHEM_BASIC_PKA>
10.33

> <JCHEM_PHYSIOLOGICAL_CHARGE>
1

> <ALOGPS_LOGP>
5.11

> <JCHEM_LOGP>
4.16

> <ALOGPS_LOGS>
-4.4

> <JCHEM_POLARIZABILITY>
42.88

> <JCHEM_POLAR_SURFACE_AREA>
37.39

> <JCHEM_REFRACTIVITY>
107.91

> <JCHEM_ROTATABLE_BOND_COUNT>
11

> <ALOGPS_SOLUBILITY>
1.34e-02 g/l __ 

$$$$
