
  Mrv0541 02231217472D          

 29 31  0  0  1  0            999 V2000
   -0.0980   -1.0942    0.0000 C   0  0  0  0  0  0  0  0  0  0  0  0
    0.7145   -1.2375    0.0000 C   0  0  2  0  0  0  0  0  0  0  0  0
    0.7145   -0.4125    0.0000 O   0  0  0  0  0  0  0  0  0  0  0  0
    1.4289    0.0000    0.0000 C   0  0  0  0  0  0  0  0  0  0  0  0
    2.1434   -0.4125    0.0000 C   0  0  1  0  0  0  0  0  0  0  0  0
    2.8579    0.0000    0.0000 O   0  0  0  0  0  0  0  0  0  0  0  0
    3.5724   -0.4125    0.0000 C   0  0  1  0  0  0  0  0  0  0  0  0
    4.2868    0.0000    0.0000 O   0  0  0  0  0  0  0  0  0  0  0  0
    4.2868    0.8250    0.0000 C   0  0  1  0  0  0  0  0  0  0  0  0
    3.5724    1.2375    0.0000 C   0  0  2  0  0  0  0  0  0  0  0  0
    2.8579    0.8250    0.0000 O   0  0  0  0  0  0  0  0  0  0  0  0
    3.5724    2.0625    0.0000 C   0  0  1  0  0  0  0  0  0  0  0  0
    2.8579    2.4750    0.0000 O   0  0  0  0  0  0  0  0  0  0  0  0
    4.2868    2.4750    0.0000 C   0  0  2  0  0  0  0  0  0  0  0  0
    4.2868    3.3000    0.0000 O   0  0  0  0  0  0  0  0  0  0  0  0
    5.0013    2.0625    0.0000 O   0  0  0  0  0  0  0  0  0  0  0  0
    5.0013    1.2375    0.0000 C   0  0  2  0  0  0  0  0  0  0  0  0
    5.7158    0.8250    0.0000 C   0  0  0  0  0  0  0  0  0  0  0  0
    5.7158    0.0000    0.0000 O   0  0  0  0  0  0  0  0  0  0  0  0
    6.4302    1.2375    0.0000 O   0  0  0  0  0  0  0  0  0  0  0  0
    3.5724   -1.2375    0.0000 C   0  0  1  0  0  0  0  0  0  0  0  0
    4.2868   -1.6500    0.0000 O   0  0  0  0  0  0  0  0  0  0  0  0
    2.8579   -1.6500    0.0000 C   0  0  1  0  0  0  0  0  0  0  0  0
    2.8579   -2.4750    0.0000 O   0  0  0  0  0  0  0  0  0  0  0  0
    2.1434   -1.2375    0.0000 C   0  0  2  0  0  0  0  0  0  0  0  0
    1.4289   -1.6500    0.0000 O   0  0  0  0  0  0  0  0  0  0  0  0
    0.4323   -2.0127    0.0000 C   0  0  0  0  0  0  0  0  0  0  0  0
    0.9626   -2.6447    0.0000 O   0  0  0  0  0  0  0  0  0  0  0  0
   -0.3802   -2.1560    0.0000 O   0  0  0  0  0  0  0  0  0  0  0  0
  2  1  1  6  0  0  0
  2  3  1  0  0  0  0
  3  4  1  0  0  0  0
  4  5  1  0  0  0  0
  5  6  1  1  0  0  0
  6  7  1  0  0  0  0
  7  8  1  1  0  0  0
  9  8  1  1  0  0  0
  9 10  1  0  0  0  0
 10 11  1  6  0  0  0
 10 12  1  0  0  0  0
 12 13  1  1  0  0  0
 12 14  1  0  0  0  0
 14 15  1  6  0  0  0
 14 16  1  0  0  0  0
 16 17  1  0  0  0  0
  9 17  1  0  0  0  0
 17 18  1  6  0  0  0
 18 19  1  0  0  0  0
 18 20  2  0  0  0  0
  7 21  1  0  0  0  0
 21 22  1  1  0  0  0
 21 23  1  0  0  0  0
 23 24  1  1  0  0  0
 23 25  1  0  0  0  0
  5 25  1  0  0  0  0
 25 26  1  6  0  0  0
  2 26  1  0  0  0  0
  2 27  1  1  0  0  0
 27 28  1  0  0  0  0
 27 29  2  0  0  0  0
M  END
> <DRUGBANK_ID>
DB04596

> <DRUG_GROUPS>
experimental

> <GENERIC_NAME>
4,6-O-(1-CARBOXYETHYLIDENE)-BETA-D-MANNOSE-(1->4)-BETA-D-GLUCURONIC ACID

> <CHEMICAL_FORMULA>
C15H22O14

> <MOLECULAR_WEIGHT>
426.3268

> <EXACT_MASS>
426.100955412

> <IUPAC_NAME>
(2S,3S,4R,5R,6R)-3-{[(2S,4aR,6S,7S,8R,8aS)-2-carboxy-7,8-dihydroxy-2-methyl-hexahydro-2H-pyrano[3,2-d][1,3]dioxin-6-yl]oxy}-4,5,6-trihydroxyoxane-2-carboxylic acid

> <IUPAC_TRADITIONAL_NAME>
(2S,3S,4R,5R,6R)-3-{[(2S,4aR,6S,7S,8R,8aS)-2-carboxy-7,8-dihydroxy-2-methyl-hexahydropyrano[3,2-d][1,3]dioxin-6-yl]oxy}-4,5,6-trihydroxyoxane-2-carboxylic acid

> <INCHI_IDENTIFIER>
InChI=1S/C15H22O14/c1-15(14(23)24)25-2-3-8(29-15)5(17)7(19)13(26-3)28-9-4(16)6(18)12(22)27-10(9)11(20)21/h3-10,12-13,16-19,22H,2H2,1H3,(H,20,21)(H,23,24)/t3-,4-,5-,6-,7+,8-,9+,10+,12-,13+,15+/m1/s1

> <INCHI_KEY>
InChIKey=GZJXZKGVHLWBOW-RJABHKQUSA-N

> <SMILES>
C[C@@]1(OC[C@H]2O[C@@H](O[C@H]3[C@H](O)[C@@H](O)[C@H](O)O[C@@H]3C(O)=O)[C@@H](O)[C@@H](O)[C@@H]2O1)C(O)=O

> <JCHEM_ACCEPTOR_COUNT>
14

> <JCHEM_DONOR_COUNT>
7

> <JCHEM_ACIDIC_PKA>
2.63

> <JCHEM_BASIC_PKA>
-3.7

> <JCHEM_PHYSIOLOGICAL_CHARGE>
-2

> <ALOGPS_LOGP>
-1.8

> <JCHEM_LOGP>
-2.9

> <ALOGPS_LOGS>
-0.66

> <JCHEM_POLARIZABILITY>
37.59

> <JCHEM_POLAR_SURFACE_AREA>
221.9

> <JCHEM_REFRACTIVITY>
81.73

> <JCHEM_ROTATABLE_BOND_COUNT>
4

> <ALOGPS_SOLUBILITY>
9.41e+01 g/l __ 

$$$$
