
  Mrv0541 02231217332D          

 43 50  0  0  1  0            999 V2000
    0.9165   -1.6394    0.0000 C    0  0  0  0  0  0  0  0  0  0  0  0
    0.8839   -0.8150    0.0000 C    0  0  0  0  0  0  0  0  0  0  0  0
    1.5815   -0.3746    0.0000 C    0  0  0  0  0  0  0  0  0  0  0  0
    1.6353    0.4486    0.0000 C    0  0  0  0  0  0  0  0  0  0  0  0
    1.0008    0.9760    0.0000 C    0  0  0  0  0  0  0  0  0  0  0  0
    2.4348    0.6519    0.0000 C    0  0  0  0  0  0  0  0  0  0  0  0
    2.9554    1.5893    0.0000 C    0  0  0  0  0  0  0  0  0  0  0  0
    3.6697    2.0020    0.0000 C    0  0  0  0  0  0  0  0  0  0  0  0
    4.3042    1.4746    0.0000 N    0  0  0  0  0  0  0  0  0  0  0  0
    5.0018    1.9151    0.0000 C    0  0  0  0  0  0  0  0  0  0  0  0
    5.9392    1.3945    0.0000 C    0  0  0  0  0  0  0  0  0  0  0  0
    6.3519    0.6802    0.0000 C    0  0  0  0  0  0  0  0  0  0  0  0
    7.1183    0.3746    0.0000 C    0  0  0  0  0  0  0  0  0  0  0  0
    7.8159    0.8150    0.0000 C    0  0  0  0  0  0  0  0  0  0  0  0
    7.7833    1.6394    0.0000 C    0  0  0  0  0  0  0  0  0  0  0  0
    8.4809    2.0798    0.0000 C    0  0  0  0  0  0  0  0  0  0  0  0
    8.4483    2.9042    0.0000 O    0  0  0  0  0  0  0  0  0  0  0  0
    9.2111    1.6958    0.0000 O    0  0  0  0  0  0  0  0  0  0  0  0
    7.0645   -0.4486    0.0000 C    0  0  0  0  0  0  0  0  0  0  0  0
    7.6989   -0.9760    0.0000 C    0  0  0  0  0  0  0  0  0  0  0  0
    6.2649   -0.6519    0.0000 C    0  0  0  0  0  0  0  0  0  0  0  0
    5.7444   -1.5893    0.0000 C    0  0  0  0  0  0  0  0  0  0  0  0
    5.0300   -2.0020    0.0000 C    0  0  0  0  0  0  0  0  0  0  0  0
    4.3956   -1.4746    0.0000 N    0  0  0  0  0  0  0  0  0  0  0  0
    3.6980   -1.9151    0.0000 C    0  0  0  0  0  0  0  0  0  0  0  0
    2.7605   -1.3945    0.0000 C    0  0  0  0  0  0  0  0  0  0  0  0
    2.3479   -0.6802    0.0000 C    0  0  0  0  0  0  0  0  0  0  0  0
    2.8752   -0.0457    0.0000 N    0  0  0  0  0  0  0  0  0  0  0  0
    4.3499    0.0000    0.0000 Zn   0  0  2  0  0  0  0  0  0  0  0  0
    5.8245    0.0457    0.0000 N    0  0  0  0  0  0  0  0  0  0  0  0
    3.9013   -2.7146    0.0000 C    0  0  0  0  0  0  0  0  0  0  0  0
    3.3739   -3.3490    0.0000 C    0  0  0  0  0  0  0  0  0  0  0  0
    4.7245   -2.7684    0.0000 C    0  0  0  0  0  0  0  0  0  0  0  0
    5.1649   -3.4660    0.0000 C    0  0  0  0  0  0  0  0  0  0  0  0
    5.9893   -3.4334    0.0000 C    0  0  0  0  0  0  0  0  0  0  0  0
    4.7985    2.7146    0.0000 C    0  0  0  0  0  0  0  0  0  0  0  0
    5.3259    3.3490    0.0000 C    0  0  0  0  0  0  0  0  0  0  0  0
    5.0401    4.1230    0.0000 C    0  0  0  0  0  0  0  0  0  0  0  0
    5.5675    4.7574    0.0000 C    0  0  0  0  0  0  0  0  0  0  0  0
    6.3806    4.6179    0.0000 O    0  0  0  0  0  0  0  0  0  0  0  0
    5.2818    5.5313    0.0000 O    0  0  0  0  0  0  0  0  0  0  0  0
    3.9753    2.7684    0.0000 C    0  0  0  0  0  0  0  0  0  0  0  0
    3.5348    3.4660    0.0000 C    0  0  0  0  0  0  0  0  0  0  0  0
  1  2  1  0  0  0  0
  2  3  2  0  0  0  0
  3  4  1  0  0  0  0
  4  5  1  0  0  0  0
  4  6  2  0  0  0  0
  6  7  1  0  0  0  0
  7  8  2  0  0  0  0
  8  9  1  0  0  0  0
  9 10  1  0  0  0  0
 10 11  2  0  0  0  0
 11 12  1  0  0  0  0
 12 13  2  0  0  0  0
 13 14  1  0  0  0  0
 14 15  1  0  0  0  0
 15 16  1  0  0  0  0
 16 17  1  0  0  0  0
 16 18  2  0  0  0  0
 13 19  1  0  0  0  0
 19 20  1  0  0  0  0
 19 21  2  0  0  0  0
 21 22  1  0  0  0  0
 22 23  2  0  0  0  0
 23 24  1  0  0  0  0
 24 25  1  0  0  0  0
 25 26  1  0  0  0  0
 26 27  2  0  0  0  0
  3 27  1  0  0  0  0
 27 28  1  0  0  0  0
  6 28  1  0  0  0  0
 29 28  1  1  0  0  0
  9 29  1  0  0  0  0
 24 29  1  0  0  0  0
 29 30  1  0  0  0  0
 12 30  1  0  0  0  0
 21 30  1  0  0  0  0
 25 31  2  0  0  0  0
 31 32  1  0  0  0  0
 31 33  1  0  0  0  0
 23 33  1  0  0  0  0
 33 34  2  0  0  0  0
 34 35  1  0  0  0  0
 10 36  1  0  0  0  0
 36 37  1  0  0  0  0
 37 38  1  0  0  0  0
 38 39  1  0  0  0  0
 39 40  1  0  0  0  0
 39 41  2  0  0  0  0
 36 42  2  0  0  0  0
  8 42  1  0  0  0  0
 42 43  1  0  0  0  0
M  END
> <DRUGBANK_ID>
DB04249

> <DRUG_GROUPS>
experimental

> <GENERIC_NAME>
Zinc Substituted Heme C

> <CHEMICAL_FORMULA>
C34H34N4O4Zn

> <MOLECULAR_WEIGHT>
628.067

> <EXACT_MASS>
626.187152174

> <IUPAC_NAME>
3-[(1S,10Z,15Z)-20-(2-carboxyethyl)-10,15-diethylidene-5,9,14,19-tetramethyl-2,22,23,25-tetraaza-1-zincaoctacyclo[11.9.1.1^{1,8}.1^{3,21}.0^{2,6}.0^{16,23}.0^{18,22}.0^{11,25}]pentacosa-3(24),4,6,8,11,13,16,18,20-nonaen-4-yl]propanoic acid

> <IUPAC_TRADITIONAL_NAME>
zinc substituted heme C

> <INCHI_IDENTIFIER>
InChI=1S/C34H34N4O4.Zn/c1-7-21-17(3)25-13-26-19(5)23(9-11-33(39)40)31(37-26)16-32-24(10-12-34(41)42)20(6)28(38-32)15-30-22(8-2)18(4)27(36-30)14-29(21)35-25;/h7-8,13-16H,9-12H2,1-6H3,(H,39,40)(H,41,42);/q-4;+4/b21-7-,22-8-,26-13-,29-14-,30-15-,31-16-;

> <INCHI_KEY>
InChIKey=OSHBEULYPOLYCE-STIJKOADSA-N

> <SMILES>
C\C=C1\C(C)=C2C=C3N4C(=CC5=C(CCC(O)=O)C(C)=C6C=C7N8C(C=C1N2[Zn@]48N56)=C(C)\C7=C\C)C(CCC(O)=O)=C3C

> <JCHEM_ACCEPTOR_COUNT>
7

> <JCHEM_DONOR_COUNT>
2

> <JCHEM_ACIDIC_PKA>
3.15

> <JCHEM_BASIC_PKA>
9.11

> <JCHEM_PHYSIOLOGICAL_CHARGE>
-1

> <ALOGPS_LOGP>
4.26

> <JCHEM_LOGP>
-0.12

> <ALOGPS_LOGS>
-2.8

> <JCHEM_POLARIZABILITY>
69.97

> <JCHEM_POLAR_SURFACE_AREA>
89.25

> <JCHEM_REFRACTIVITY>
174.1

> <JCHEM_ROTATABLE_BOND_COUNT>
6

> <ALOGPS_SOLUBILITY>
1.08e+00 g/l __ 

$$$$
