
  Mrv0541 02231217322D          

  9  8  0  0  1  0            999 V2000
    1.7605    1.8414    0.0000 C   0  0  0  0  0  0  0  0  0  0  0  0
    2.4750    1.4289    0.0000 C   0  0  0  0  0  0  0  0  0  0  0  0
    3.1895    1.8414    0.0000 C   0  0  2  0  0  0  0  0  0  0  0  0
    3.1895    2.6664    0.0000 N   0  0  0  0  0  0  0  0  0  0  0  0
    3.9039    1.4289    0.0000 C   0  0  0  0  0  0  0  0  0  0  0  0
    4.6184    1.8414    0.0000 C   0  0  0  0  0  0  0  0  0  0  0  0
    5.3329    1.4289    0.0000 C   0  0  0  0  0  0  0  0  0  0  0  0
    6.0474    1.8414    0.0000 O   0  0  0  0  0  0  0  0  0  0  0  0
    5.3329    0.6039    0.0000 O   0  0  0  0  0  0  0  0  0  0  0  0
  1  2  1  0  0  0  0
  2  3  1  0  0  0  0
  3  4  1  6  0  0  0
  3  5  1  0  0  0  0
  5  6  1  0  0  0  0
  6  7  1  0  0  0  0
  7  8  1  0  0  0  0
  7  9  2  0  0  0  0
M  END
> <DRUGBANK_ID>
DB04235

> <DRUG_GROUPS>
experimental

> <GENERIC_NAME>
4-Amino Hexanoic Acid

> <CHEMICAL_FORMULA>
C6H13NO2

> <MOLECULAR_WEIGHT>
131.1729

> <EXACT_MASS>
131.094628665

> <IUPAC_NAME>
(4S)-4-aminohexanoic acid

> <IUPAC_TRADITIONAL_NAME>
4-amino hexanoic acid

> <INCHI_IDENTIFIER>
InChI=1S/C6H13NO2/c1-2-5(7)3-4-6(8)9/h5H,2-4,7H2,1H3,(H,8,9)/t5-/m0/s1

> <INCHI_KEY>
InChIKey=ROFNJLCLYMMXCT-YFKPBYRVSA-N

> <SMILES>
CC[C@H](N)CCC(O)=O

> <JCHEM_ACCEPTOR_COUNT>
3

> <JCHEM_DONOR_COUNT>
2

> <JCHEM_ACIDIC_PKA>
4.7

> <JCHEM_BASIC_PKA>
10.47

> <JCHEM_PHYSIOLOGICAL_CHARGE>
0

> <ALOGPS_LOGP>
-1.9

> <JCHEM_LOGP>
-1.9

> <ALOGPS_LOGS>
-0.09

> <JCHEM_POLARIZABILITY>
14.41

> <JCHEM_POLAR_SURFACE_AREA>
63.32

> <JCHEM_REFRACTIVITY>
34.4

> <JCHEM_ROTATABLE_BOND_COUNT>
4

> <ALOGPS_SOLUBILITY>
1.05e+02 g/l __ 

$$$$
