
  Mrv0541 02231217252D          

  9  9  0  0  0  0            999 V2000
    2.1434    1.2375    0.0000 C   0  0  0  0  0  0  0  0  0  0  0  0
    1.4289    0.8250    0.0000 N   0  3  0  0  0  0  0  0  0  0  0  0
    1.4289    0.0000    0.0000 C   0  0  0  0  0  0  0  0  0  0  0  0
    2.1434   -0.4125    0.0000 N   0  0  0  0  0  0  0  0  0  0  0  0
    0.7145   -0.4125    0.0000 C   0  0  0  0  0  0  0  0  0  0  0  0
    0.0000    0.0000    0.0000 C   0  0  0  0  0  0  0  0  0  0  0  0
    0.0000    0.8250    0.0000 N   0  0  0  0  0  0  0  0  0  0  0  0
    0.7145    1.2375    0.0000 C   0  0  0  0  0  0  0  0  0  0  0  0
    0.7145    2.0625    0.0000 O   0  0  0  0  0  0  0  0  0  0  0  0
  1  2  1  0  0  0  0
  2  3  2  0  0  0  0
  3  4  1  0  0  0  0
  3  5  1  0  0  0  0
  5  6  2  0  0  0  0
  6  7  1  0  0  0  0
  7  8  1  0  0  0  0
  2  8  1  0  0  0  0
  8  9  2  0  0  0  0
M  END
> <DRUGBANK_ID>
DB04103

> <DRUG_GROUPS>
experimental

> <GENERIC_NAME>
3-Methylcytosine

> <CHEMICAL_FORMULA>
C5H8N3O

> <MOLECULAR_WEIGHT>
126.1365

> <EXACT_MASS>
126.066736893

> <IUPAC_NAME>
6-amino-1-methyl-2-oxo-2,3-dihydropyrimidin-1-ium

> <IUPAC_TRADITIONAL_NAME>
3-methylcytosine

> <INCHI_IDENTIFIER>
InChI=1S/C5H7N3O/c1-8-4(6)2-3-7-5(8)9/h2-3H,1H3,(H2,6,7,9)/p+1

> <INCHI_KEY>
InChIKey=UPHQQDZIRIHPHU-UHFFFAOYSA-O

> <SMILES>
C[N+]1=C(N)C=CNC1=O

> <JCHEM_ACCEPTOR_COUNT>
2

> <JCHEM_DONOR_COUNT>
2

> <JCHEM_ACIDIC_PKA>
8.52

> <JCHEM_BASIC_PKA>
-4.8

> <JCHEM_PHYSIOLOGICAL_CHARGE>
1

> <ALOGPS_LOGP>
-1.7

> <JCHEM_LOGP>
-4.3

> <ALOGPS_LOGS>
-1.1

> <JCHEM_POLARIZABILITY>
12.27

> <JCHEM_POLAR_SURFACE_AREA>
58.13

> <JCHEM_REFRACTIVITY>
33.65

> <JCHEM_ROTATABLE_BOND_COUNT>
0

> <ALOGPS_SOLUBILITY>
1.15e+01 g/l __ 

$$$$
