
  Mrv0541 02231217272D          

 11 12  0  0  0  0            999 V2000
    4.0668    3.1729    0.0000 C   0  0  0  0  0  0  0  0  0  0  0  0
    4.0668    2.3479    0.0000 O   0  0  0  0  0  0  0  0  0  0  0  0
    3.3523    1.9354    0.0000 C   0  0  0  0  0  0  0  0  0  0  0  0
    3.3523    1.1104    0.0000 C   0  0  0  0  0  0  0  0  0  0  0  0
    2.6378    0.6979    0.0000 C   0  0  0  0  0  0  0  0  0  0  0  0
    1.9233    1.1104    0.0000 C   0  0  0  0  0  0  0  0  0  0  0  0
    1.1387    0.8555    0.0000 N   0  0  0  0  0  0  0  0  0  0  0  0
    0.6538    1.5229    0.0000 C   0  0  0  0  0  0  0  0  0  0  0  0
    1.1387    2.1904    0.0000 N   0  0  0  0  0  0  0  0  0  0  0  0
    1.9233    1.9354    0.0000 C   0  0  0  0  0  0  0  0  0  0  0  0
    2.6378    2.3479    0.0000 C   0  0  0  0  0  0  0  0  0  0  0  0
  1  2  1  0  0  0  0
  2  3  1  0  0  0  0
  3  4  4  0  0  0  0
  4  5  4  0  0  0  0
  5  6  4  0  0  0  0
  6  7  4  0  0  0  0
  7  8  4  0  0  0  0
  8  9  4  0  0  0  0
  9 10  4  0  0  0  0
  6 10  4  0  0  0  0
 10 11  4  0  0  0  0
  3 11  4  0  0  0  0
M  END
> <DRUGBANK_ID>
DB04130

> <DRUG_GROUPS>
experimental

> <GENERIC_NAME>
5-Methoxybenzimidazole

> <CHEMICAL_FORMULA>
C8H7N2O

> <MOLECULAR_WEIGHT>
147.154

> <EXACT_MASS>
147.055837856

> <IUPAC_NAME>
5-methoxy-1,3-benzodiazole

> <IUPAC_TRADITIONAL_NAME>
5-methoxybenzimidazole

> <SMILES>
COc1ccc2ncnc2c1

> <JCHEM_ACCEPTOR_COUNT>
3

> <JCHEM_DONOR_COUNT>
0

> <JCHEM_BASIC_PKA>
2.42

> <JCHEM_PHYSIOLOGICAL_CHARGE>
0

> <ALOGPS_LOGP>
1.41

> <JCHEM_LOGP>
1.32

> <ALOGPS_LOGS>
-1.4

> <JCHEM_POLARIZABILITY>
14.87

> <JCHEM_POLAR_SURFACE_AREA>
35.01

> <JCHEM_REFRACTIVITY>
40.55

> <JCHEM_ROTATABLE_BOND_COUNT>
1

> <ALOGPS_SOLUBILITY>
5.60e+00 g/l __ 

$$$$
