
  Mrv0541 02231217542D          

  8  7  0  0  0  0            999 V2000
    1.7605    1.8414    0.0000 O   0  0  0  0  0  0  0  0  0  0  0  0
    2.4750    1.4289    0.0000 C   0  0  0  0  0  0  0  0  0  0  0  0
    3.1895    1.8414    0.0000 C   0  0  0  0  0  0  0  0  0  0  0  0
    3.9039    1.4289    0.0000 C   0  0  0  0  0  0  0  0  0  0  0  0
    4.6184    1.8414    0.0000 C   0  0  0  0  0  0  0  0  0  0  0  0
    5.3329    1.4289    0.0000 C   0  0  0  0  0  0  0  0  0  0  0  0
    6.0474    1.8414    0.0000 O   0  0  0  0  0  0  0  0  0  0  0  0
    5.3329    0.6039    0.0000 O   0  0  0  0  0  0  0  0  0  0  0  0
  1  2  1  0  0  0  0
  2  3  1  0  0  0  0
  3  4  1  0  0  0  0
  4  5  1  0  0  0  0
  5  6  1  0  0  0  0
  6  7  1  0  0  0  0
  6  8  2  0  0  0  0
M  END
> <DRUGBANK_ID>
DB04781

> <DRUG_GROUPS>
experimental

> <GENERIC_NAME>
5-hydroxyvaleric acid

> <SYNONYMS>


> <CHEMICAL_FORMULA>
C5H10O3

> <MOLECULAR_WEIGHT>
118.1311

> <EXACT_MASS>
118.062994186

> <IUPAC_NAME>
5-hydroxypentanoic acid

> <IUPAC_TRADITIONAL_NAME>
5-hydroxyvaleric acid

> <INCHI_IDENTIFIER>
InChI=1S/C5H10O3/c6-4-2-1-3-5(7)8/h6H,1-4H2,(H,7,8)

> <INCHI_KEY>
InChIKey=PHOJOSOUIAQEDH-UHFFFAOYSA-N

> <SMILES>
OCCCCC(O)=O

> <JCHEM_ACCEPTOR_COUNT>
3

> <JCHEM_DONOR_COUNT>
2

> <JCHEM_ACIDIC_PKA>
4.59

> <JCHEM_BASIC_PKA>
-2

> <JCHEM_PHYSIOLOGICAL_CHARGE>
-1

> <ALOGPS_LOGP>
-0.23

> <JCHEM_LOGP>
-0.07

> <ALOGPS_LOGS>
0.31

> <JCHEM_POLARIZABILITY>
12.18

> <JCHEM_POLAR_SURFACE_AREA>
57.53

> <JCHEM_REFRACTIVITY>
28.4

> <JCHEM_ROTATABLE_BOND_COUNT>
4

> <ALOGPS_SOLUBILITY>
2.43e+02 g/l __ 

$$$$
