
  Mrv0541 02231217212D          

 26 29  0  0  0  0            999 V2000
   -2.2902    3.7972    0.0000 N    0  0  0  0  0  0  0  0  0  0  0  0
   -1.5757    3.3847    0.0000 C    0  0  0  0  0  0  0  0  0  0  0  0
   -0.8612    3.7972    0.0000 N    0  0  0  0  0  0  0  0  0  0  0  0
   -1.5757    2.5597    0.0000 C    0  0  0  0  0  0  0  0  0  0  0  0
   -0.8612    2.1472    0.0000 C    0  0  0  0  0  0  0  0  0  0  0  0
   -0.8612    1.3222    0.0000 C    0  0  0  0  0  0  0  0  0  0  0  0
   -1.5757    0.9097    0.0000 C    0  0  0  0  0  0  0  0  0  0  0  0
   -2.2902    1.3222    0.0000 C    0  0  0  0  0  0  0  0  0  0  0  0
   -2.2902    2.1472    0.0000 C    0  0  0  0  0  0  0  0  0  0  0  0
   -1.4042    0.1028    0.0000 N    0  0  0  0  0  0  0  0  0  0  0  0
   -1.9562   -0.5103    0.0000 Zn   0  0  0  0  0  0  0  0  0  0  0  0
   -0.5837    0.0165    0.0000 C    0  0  0  0  0  0  0  0  0  0  0  0
   -0.1712   -0.6979    0.0000 C    0  0  0  0  0  0  0  0  0  0  0  0
    0.6538   -0.6979    0.0000 C    0  0  0  0  0  0  0  0  0  0  0  0
    1.1387   -0.0305    0.0000 N    0  0  0  0  0  0  0  0  0  0  0  0
    1.9233   -0.2854    0.0000 C    0  0  0  0  0  0  0  0  0  0  0  0
    2.6378    0.1271    0.0000 C    0  0  0  0  0  0  0  0  0  0  0  0
    3.3523   -0.2854    0.0000 C    0  0  0  0  0  0  0  0  0  0  0  0
    3.3523   -1.1104    0.0000 C    0  0  0  0  0  0  0  0  0  0  0  0
    2.6378   -1.5229    0.0000 C    0  0  0  0  0  0  0  0  0  0  0  0
    1.9233   -1.1104    0.0000 C    0  0  0  0  0  0  0  0  0  0  0  0
    1.1387   -1.3654    0.0000 N    0  0  0  0  0  0  0  0  0  0  0  0
    4.0668   -1.5229    0.0000 C    0  0  0  0  0  0  0  0  0  0  0  0
    4.7812   -1.1104    0.0000 N    0  0  0  0  0  0  0  0  0  0  0  0
    4.0668   -2.3479    0.0000 N    0  0  0  0  0  0  0  0  0  0  0  0
   -0.2481    0.7702    0.0000 N    0  0  0  0  0  0  0  0  0  0  0  0
  1  2  1  0  0  0  0
  2  3  2  0  0  0  0
  2  4  1  0  0  0  0
  4  5  2  0  0  0  0
  5  6  1  0  0  0  0
  6  7  2  0  0  0  0
  7  8  1  0  0  0  0
  8  9  2  0  0  0  0
  4  9  1  0  0  0  0
  7 10  1  0  0  0  0
 10 11  1  0  0  0  0
 10 12  1  0  0  0  0
 12 13  1  0  0  0  0
 13 14  1  0  0  0  0
 14 15  4  0  0  0  0
 15 16  4  0  0  0  0
 16 17  4  0  0  0  0
 17 18  4  0  0  0  0
 18 19  4  0  0  0  0
 19 20  4  0  0  0  0
 20 21  4  0  0  0  0
 16 21  4  0  0  0  0
 21 22  4  0  0  0  0
 14 22  4  0  0  0  0
 19 23  1  0  0  0  0
 23 24  1  0  0  0  0
 23 25  2  0  0  0  0
 12 26  2  0  0  0  0
  6 26  1  0  0  0  0
M  END
> <DRUGBANK_ID>
DB04008

> <DRUG_GROUPS>
experimental

> <GENERIC_NAME>
Bis(5-Amidino-Benzimidazolyl)Methane Zinc

> <CHEMICAL_FORMULA>
C17H14N8Zn

> <MOLECULAR_WEIGHT>
395.756

> <EXACT_MASS>
394.063289066

> <IUPAC_NAME>
{5-carbamimidoyl-2-[(5-carbamimidoyl-1,3-benzodiazol-2-yl)methyl]-1H-1,3-benzodiazol-1-yl}zinc

> <IUPAC_TRADITIONAL_NAME>
{5-carbamimidoyl-2-[(5-carbamimidoyl-1,3-benzodiazol-2-yl)methyl]-1,3-benzodiazol-1-yl}zinc

> <SMILES>
NC(=N)C1=CC2=C(C=C1)N([Zn])C(Cc1nc3ccc(cc3n1)C(N)=N)=N2

> <JCHEM_ACCEPTOR_COUNT>
7

> <JCHEM_DONOR_COUNT>
4

> <JCHEM_BASIC_PKA>
11.08

> <JCHEM_PHYSIOLOGICAL_CHARGE>
2

> <ALOGPS_LOGP>
0.79

> <JCHEM_LOGP>
1.79

> <ALOGPS_LOGS>
-3.1

> <JCHEM_POLARIZABILITY>
37.59

> <JCHEM_POLAR_SURFACE_AREA>
143.34

> <JCHEM_REFRACTIVITY>
115.78

> <JCHEM_ROTATABLE_BOND_COUNT>
4

> <ALOGPS_SOLUBILITY>
2.94e-01 g/l __ 

$$$$
