
  Mrv0541 02231217302D          

 17 16  0  0  1  0            999 V2000
    3.5211    2.8579    0.0000 N   0  0  0  0  0  0  0  0  0  0  0  0
    4.2355    3.2704    0.0000 C   0  0  0  0  0  0  0  0  0  0  0  0
    4.2355    4.0954    0.0000 N   0  0  0  0  0  0  0  0  0  0  0  0
    4.9500    2.8579    0.0000 N   0  0  0  0  0  0  0  0  0  0  0  0
    5.6645    3.2704    0.0000 C   0  0  0  0  0  0  0  0  0  0  0  0
    6.3789    2.8579    0.0000 C   0  0  0  0  0  0  0  0  0  0  0  0
    7.0934    3.2704    0.0000 C   0  0  0  0  0  0  0  0  0  0  0  0
    7.8079    2.8579    0.0000 C   0  0  1  0  0  0  0  0  0  0  0  0
    8.5224    3.2704    0.0000 N   0  0  0  0  0  0  0  0  0  0  0  0
    9.2368    2.8579    0.0000 C   0  0  0  0  0  0  0  0  0  0  0  0
    9.9513    3.2704    0.0000 C   0  0  0  0  0  0  0  0  0  0  0  0
   10.6658    2.8579    0.0000 C   0  0  0  0  0  0  0  0  0  0  0  0
   11.3802    3.2704    0.0000 O   0  0  0  0  0  0  0  0  0  0  0  0
   10.6658    2.0329    0.0000 O   0  0  0  0  0  0  0  0  0  0  0  0
    7.8079    2.0329    0.0000 C   0  0  0  0  0  0  0  0  0  0  0  0
    8.5224    1.6204    0.0000 O   0  0  0  0  0  0  0  0  0  0  0  0
    7.0934    1.6204    0.0000 O   0  0  0  0  0  0  0  0  0  0  0  0
  1  2  1  0  0  0  0
  2  3  2  0  0  0  0
  2  4  1  0  0  0  0
  4  5  1  0  0  0  0
  5  6  1  0  0  0  0
  6  7  1  0  0  0  0
  7  8  1  0  0  0  0
  8  9  1  1  0  0  0
  9 10  1  0  0  0  0
 10 11  1  0  0  0  0
 11 12  1  0  0  0  0
 12 13  1  0  0  0  0
 12 14  2  0  0  0  0
  8 15  1  0  0  0  0
 15 16  1  0  0  0  0
 15 17  2  0  0  0  0
M  END
> <DRUGBANK_ID>
DB04189

> <DRUG_GROUPS>
experimental

> <GENERIC_NAME>
N2-(Carboxyethyl)-L-Arginine

> <CHEMICAL_FORMULA>
C9H18N4O4

> <MOLECULAR_WEIGHT>
246.2636

> <EXACT_MASS>
246.132805084

> <IUPAC_NAME>
(2R)-5-carbamimidamido-2-[(2-carboxyethyl)amino]pentanoic acid

> <IUPAC_TRADITIONAL_NAME>
(2R)-5-carbamimidamido-2-[(2-carboxyethyl)amino]pentanoic acid

> <INCHI_IDENTIFIER>
InChI=1S/C9H18N4O4/c10-9(11)13-4-1-2-6(8(16)17)12-5-3-7(14)15/h6,12H,1-5H2,(H,14,15)(H,16,17)(H4,10,11,13)/t6-/m1/s1

> <INCHI_KEY>
InChIKey=OHWCFZJEIHZWMN-ZCFIWIBFSA-N

> <SMILES>
NC(=N)NCCC[C@@H](NCCC(O)=O)C(O)=O

> <JCHEM_ACCEPTOR_COUNT>
8

> <JCHEM_DONOR_COUNT>
6

> <JCHEM_ACIDIC_PKA>
1.72

> <JCHEM_BASIC_PKA>
12.13

> <JCHEM_PHYSIOLOGICAL_CHARGE>
0

> <ALOGPS_LOGP>
-2.8

> <JCHEM_LOGP>
-5.5

> <ALOGPS_LOGS>
-2.6

> <JCHEM_POLARIZABILITY>
24.67

> <JCHEM_POLAR_SURFACE_AREA>
148.53

> <JCHEM_REFRACTIVITY>
69.48

> <JCHEM_ROTATABLE_BOND_COUNT>
9

> <ALOGPS_SOLUBILITY>
6.58e-01 g/l __ 

$$$$
