
  Mrv0541 02231217372D          

 12 12  0  0  1  0            999 V2000
    2.1434    1.2375    0.0000 O   0  0  0  0  0  0  0  0  0  0  0  0
    1.4289    0.8250    0.0000 C   0  0  2  0  0  0  0  0  0  0  0  0
    1.4289    0.0000    0.0000 C   0  0  0  0  0  0  0  0  0  0  0  0
    0.7145   -0.4125    0.0000 C   0  0  1  0  0  0  0  0  0  0  0  0
    0.0000    0.0000    0.0000 C   0  0  0  0  0  0  0  0  0  0  0  0
    0.0000    0.8250    0.0000 C   0  0  0  0  0  0  0  0  0  0  0  0
   -0.7145    1.2375    0.0000 O   0  0  0  0  0  0  0  0  0  0  0  0
    0.7145    1.2375    0.0000 C   0  0  2  0  0  0  0  0  0  0  0  0
    0.7145    2.0625    0.0000 O   0  0  0  0  0  0  0  0  0  0  0  0
    0.7145   -1.2375    0.0000 C   0  0  0  0  0  0  0  0  0  0  0  0
    1.4289   -1.6500    0.0000 O   0  0  0  0  0  0  0  0  0  0  0  0
    0.0000   -1.6500    0.0000 O   0  0  0  0  0  0  0  0  0  0  0  0
  2  1  1  6  0  0  0
  2  3  1  0  0  0  0
  3  4  1  0  0  0  0
  4  5  1  0  0  0  0
  5  6  2  0  0  0  0
  6  7  1  0  0  0  0
  6  8  1  0  0  0  0
  2  8  1  0  0  0  0
  8  9  1  6  0  0  0
  4 10  1  6  0  0  0
 10 11  1  0  0  0  0
 10 12  2  0  0  0  0
M  END
> <DRUGBANK_ID>
DB04347

> <DRUG_GROUPS>
experimental

> <GENERIC_NAME>
3-Dehydroshikimate

> <CHEMICAL_FORMULA>
C7H10O5

> <MOLECULAR_WEIGHT>
174.1513

> <EXACT_MASS>
174.05282343

> <IUPAC_NAME>
(1S,4R,5R)-3,4,5-trihydroxycyclohex-2-ene-1-carboxylic acid

> <IUPAC_TRADITIONAL_NAME>
3-dehydroshikimate

> <INCHI_IDENTIFIER>
InChI=1S/C7H10O5/c8-4-1-3(7(11)12)2-5(9)6(4)10/h1,3,5-6,8-10H,2H2,(H,11,12)/t3-,5-,6+/m1/s1

> <INCHI_KEY>
InChIKey=YVYKOQWMJZXRRM-PUFIMZNGSA-N

> <SMILES>
O[C@@H]1C[C@@H](C=C(O)[C@@H]1O)C(O)=O

> <JCHEM_ACCEPTOR_COUNT>
5

> <JCHEM_DONOR_COUNT>
4

> <JCHEM_ACIDIC_PKA>
3.94

> <JCHEM_BASIC_PKA>
-3.2

> <JCHEM_PHYSIOLOGICAL_CHARGE>
-1

> <ALOGPS_LOGP>
-1.5

> <JCHEM_LOGP>
-1.4

> <ALOGPS_LOGS>
0.02

> <JCHEM_POLARIZABILITY>
15.71

> <JCHEM_POLAR_SURFACE_AREA>
97.99

> <JCHEM_REFRACTIVITY>
39.73

> <JCHEM_ROTATABLE_BOND_COUNT>
1

> <ALOGPS_SOLUBILITY>
1.84e+02 g/l __ 

$$$$
