
  Mrv0541 02231217412D          

 20 22  0  0  1  0            999 V2000
    3.2789    2.0625    0.0000 N   0  0  0  0  0  0  0  0  0  0  0  0
    3.2789    1.2375    0.0000 C   0  0  0  0  0  0  0  0  0  0  0  0
    3.9934    0.8250    0.0000 N   0  0  0  0  0  0  0  0  0  0  0  0
    3.9934    0.0000    0.0000 C   0  0  0  0  0  0  0  0  0  0  0  0
    4.7079   -0.4125    0.0000 F   0  0  0  0  0  0  0  0  0  0  0  0
    3.2789   -0.4125    0.0000 N   0  0  0  0  0  0  0  0  0  0  0  0
    2.5645    0.0000    0.0000 C   0  0  0  0  0  0  0  0  0  0  0  0
    2.5645    0.8250    0.0000 C   0  0  0  0  0  0  0  0  0  0  0  0
    1.7798    1.0799    0.0000 N   0  0  0  0  0  0  0  0  0  0  0  0
    1.2949    0.4125    0.0000 C   0  0  0  0  0  0  0  0  0  0  0  0
    1.7798   -0.2549    0.0000 N   0  0  0  0  0  0  0  0  0  0  0  0
    1.5249   -1.0396    0.0000 C   0  0  2  0  0  0  0  0  0  0  0  0
    2.0098   -1.7070    0.0000 O   0  0  0  0  0  0  0  0  0  0  0  0
    1.5249   -2.3744    0.0000 C   0  0  1  0  0  0  0  0  0  0  0  0
    1.7798   -3.1591    0.0000 C   0  0  0  0  0  0  0  0  0  0  0  0
    2.5868   -3.3306    0.0000 O   0  0  0  0  0  0  0  0  0  0  0  0
    0.7403   -2.1195    0.0000 C   0  0  2  0  0  0  0  0  0  0  0  0
    0.0728   -2.6044    0.0000 O   0  0  0  0  0  0  0  0  0  0  0  0
    0.7403   -1.2945    0.0000 C   0  0  1  0  0  0  0  0  0  0  0  0
    0.0728   -0.8096    0.0000 O   0  0  0  0  0  0  0  0  0  0  0  0
  1  2  1  0  0  0  0
  2  3  2  0  0  0  0
  3  4  1  0  0  0  0
  4  5  1  0  0  0  0
  4  6  2  0  0  0  0
  6  7  1  0  0  0  0
  7  8  2  0  0  0  0
  2  8  1  0  0  0  0
  8  9  1  0  0  0  0
  9 10  2  0  0  0  0
 10 11  1  0  0  0  0
  7 11  1  0  0  0  0
 12 11  1  6  0  0  0
 12 13  1  0  0  0  0
 13 14  1  0  0  0  0
 14 15  1  1  0  0  0
 15 16  1  0  0  0  0
 14 17  1  0  0  0  0
 17 18  1  6  0  0  0
 17 19  1  0  0  0  0
 12 19  1  0  0  0  0
 19 20  1  1  0  0  0
M  END
> <DRUGBANK_ID>
DB04441

> <DRUG_GROUPS>
experimental

> <GENERIC_NAME>
2-Fluoroadenosine

> <CHEMICAL_FORMULA>
C10H12FN5O4

> <MOLECULAR_WEIGHT>
285.2318

> <EXACT_MASS>
285.087332102

> <IUPAC_NAME>
(2R,3R,4R,5S)-2-(6-amino-2-fluoro-9H-purin-9-yl)-5-(hydroxymethyl)oxolane-3,4-diol

> <IUPAC_TRADITIONAL_NAME>
2-fluoroadenosine

> <INCHI_IDENTIFIER>
InChI=1S/C10H12FN5O4/c11-10-14-7(12)4-8(15-10)16(2-13-4)9-6(19)5(18)3(1-17)20-9/h2-3,5-6,9,17-19H,1H2,(H2,12,14,15)/t3-,5-,6+,9+/m0/s1

> <INCHI_KEY>
InChIKey=HBUBKKRHXORPQB-BZKDHIKHSA-N

> <SMILES>
NC1=NC(F)=NC2=C1N=CN2[C@@H]1O[C@@H](CO)[C@H](O)[C@H]1O

> <JCHEM_ACCEPTOR_COUNT>
8

> <JCHEM_DONOR_COUNT>
4

> <JCHEM_ACIDIC_PKA>
12.45

> <JCHEM_BASIC_PKA>
0.72

> <JCHEM_PHYSIOLOGICAL_CHARGE>
0

> <ALOGPS_LOGP>
-0.62

> <JCHEM_LOGP>
-1.5

> <ALOGPS_LOGS>
-1.4

> <JCHEM_POLARIZABILITY>
25.14

> <JCHEM_POLAR_SURFACE_AREA>
139.54

> <JCHEM_REFRACTIVITY>
64.06

> <JCHEM_ROTATABLE_BOND_COUNT>
2

> <ALOGPS_SOLUBILITY>
1.21e+01 g/l __ 

$$$$
