
  Mrv0541 02231217282D          

 20 22  0  0  1  0            999 V2000
    0.0000   -1.6500    0.0000 C   0  0  0  0  0  0  0  0  0  0  0  0
    0.7145   -1.2375    0.0000 O   0  0  0  0  0  0  0  0  0  0  0  0
    0.7145   -0.4125    0.0000 C   0  0  0  0  0  0  0  0  0  0  0  0
    0.0000    0.0000    0.0000 C   0  0  0  0  0  0  0  0  0  0  0  0
    0.0000    0.8250    0.0000 C   0  0  0  0  0  0  0  0  0  0  0  0
    0.7145    1.2375    0.0000 C   0  0  0  0  0  0  0  0  0  0  0  0
    1.4289    0.8250    0.0000 C   0  0  0  0  0  0  0  0  0  0  0  0
    1.4289    0.0000    0.0000 C   0  0  0  0  0  0  0  0  0  0  0  0
    2.1434   -0.4125    0.0000 O   0  0  0  0  0  0  0  0  0  0  0  0
    2.1434   -1.2375    0.0000 C   0  0  0  0  0  0  0  0  0  0  0  0
    2.8109   -1.7224    0.0000 C   0  0  0  0  0  0  0  0  0  0  0  0
    2.5559   -2.5070    0.0000 C   0  0  0  0  0  0  0  0  0  0  0  0
    1.7309   -2.5070    0.0000 C   0  0  0  0  0  0  0  0  0  0  0  0
    1.4760   -1.7224    0.0000 C   0  0  0  0  0  0  0  0  0  0  0  0
    0.7145    2.0625    0.0000 C   0  0  2  0  0  0  0  0  0  0  0  0
    0.0470    2.5474    0.0000 C   0  0  0  0  0  0  0  0  0  0  0  0
    0.3020    3.3320    0.0000 N   0  0  0  0  0  0  0  0  0  0  0  0
    1.1270    3.3320    0.0000 C   0  0  0  0  0  0  0  0  0  0  0  0
    1.6119    3.9995    0.0000 O   0  0  0  0  0  0  0  0  0  0  0  0
    1.3819    2.5474    0.0000 C   0  0  0  0  0  0  0  0  0  0  0  0
  1  2  1  0  0  0  0
  2  3  1  0  0  0  0
  3  4  2  0  0  0  0
  4  5  1  0  0  0  0
  5  6  2  0  0  0  0
  6  7  1  0  0  0  0
  7  8  2  0  0  0  0
  3  8  1  0  0  0  0
  8  9  1  0  0  0  0
  9 10  1  0  0  0  0
 10 11  1  0  0  0  0
 11 12  1  0  0  0  0
 12 13  1  0  0  0  0
 13 14  1  0  0  0  0
 10 14  1  0  0  0  0
 15  6  1  6  0  0  0
 15 16  1  0  0  0  0
 16 17  1  0  0  0  0
 17 18  1  0  0  0  0
 18 19  2  0  0  0  0
 18 20  1  0  0  0  0
 15 20  1  0  0  0  0
M  END
> <DRUGBANK_ID>
DB04149

> <DRUG_GROUPS>
experimental

> <GENERIC_NAME>
(R)-Rolipram

> <CHEMICAL_FORMULA>
C16H21NO3

> <MOLECULAR_WEIGHT>
275.3428

> <EXACT_MASS>
275.152143543

> <IUPAC_NAME>
(4R)-4-[3-(cyclopentyloxy)-4-methoxyphenyl]pyrrolidin-2-one

> <IUPAC_TRADITIONAL_NAME>
(S)-rolipram

> <INCHI_IDENTIFIER>
InChI=1S/C16H21NO3/c1-19-14-7-6-11(12-9-16(18)17-10-12)8-15(14)20-13-4-2-3-5-13/h6-8,12-13H,2-5,9-10H2,1H3,(H,17,18)/t12-/m0/s1

> <INCHI_KEY>
InChIKey=HJORMJIFDVBMOB-LBPRGKRZSA-N

> <SMILES>
COC1=CC=C(C=C1OC1CCCC1)[C@@H]1CNC(=O)C1

> <JCHEM_ACCEPTOR_COUNT>
3

> <JCHEM_DONOR_COUNT>
1

> <JCHEM_ACIDIC_PKA>
14.28

> <JCHEM_BASIC_PKA>
-1.3

> <JCHEM_PHYSIOLOGICAL_CHARGE>
0

> <ALOGPS_LOGP>
2.51

> <JCHEM_LOGP>
1.96

> <ALOGPS_LOGS>
-3.6

> <JCHEM_POLARIZABILITY>
30.12

> <JCHEM_POLAR_SURFACE_AREA>
47.56

> <JCHEM_REFRACTIVITY>
76.16

> <JCHEM_ROTATABLE_BOND_COUNT>
4

> <ALOGPS_SOLUBILITY>
6.72e-02 g/l __ 

$$$$
