
  Mrv0541 02231218012D          

 26 27  0  0  0  0            999 V2000
    7.3659    2.0625    0.0000 O   0  0  0  0  0  0  0  0  0  0  0  0
    2.3645   -3.3001    0.0000 O   0  0  0  0  0  0  0  0  0  0  0  0
    3.7935   -4.1251    0.0000 O   0  0  0  0  0  0  0  0  0  0  0  0
    3.0791   -0.4125    0.0000 O   0  0  0  0  0  0  0  0  0  0  0  0
    8.0804    4.1251    0.0000 N   0  0  0  0  0  0  0  0  0  0  0  0
    4.5080   -0.4125    0.0000 N   0  0  0  0  0  0  0  0  0  0  0  0
    8.0804    3.3001    0.0000 C   0  0  0  0  0  0  0  0  0  0  0  0
    5.2224    0.8250    0.0000 C   0  0  0  0  0  0  0  0  0  0  0  0
    7.3659    2.8876    0.0000 C   0  0  0  0  0  0  0  0  0  0  0  0
    4.5080    0.4125    0.0000 C   0  0  0  0  0  0  0  0  0  0  0  0
    6.6515    1.6500    0.0000 C   0  0  0  0  0  0  0  0  0  0  0  0
    5.2224    1.6500    0.0000 C   0  0  0  0  0  0  0  0  0  0  0  0
    5.9370    0.4125    0.0000 C   0  0  0  0  0  0  0  0  0  0  0  0
    5.9370    2.0625    0.0000 C   0  0  0  0  0  0  0  0  0  0  0  0
    6.6515    0.8250    0.0000 C   0  0  0  0  0  0  0  0  0  0  0  0
    3.7935   -1.6500    0.0000 C   0  0  0  0  0  0  0  0  0  0  0  0
    3.7935   -0.8250    0.0000 C   0  0  0  0  0  0  0  0  0  0  0  0
    7.3659    4.5376    0.0000 C   0  0  0  0  0  0  0  0  0  0  0  0
    8.7949    4.5376    0.0000 C   0  0  0  0  0  0  0  0  0  0  0  0
    3.0791   -2.0625    0.0000 C   0  0  0  0  0  0  0  0  0  0  0  0
    4.5080   -2.0625    0.0000 C   0  0  0  0  0  0  0  0  0  0  0  0
    3.0791   -2.8876    0.0000 C   0  0  0  0  0  0  0  0  0  0  0  0
    3.7935   -3.3001    0.0000 C   0  0  0  0  0  0  0  0  0  0  0  0
    4.5080   -2.8876    0.0000 C   0  0  0  0  0  0  0  0  0  0  0  0
    1.6500   -2.8876    0.0000 C   0  0  0  0  0  0  0  0  0  0  0  0
    4.5080   -4.5376    0.0000 C   0  0  0  0  0  0  0  0  0  0  0  0
  1  9  1  0  0  0  0
  1 11  1  0  0  0  0
  2 22  1  0  0  0  0
  2 25  1  0  0  0  0
  3 23  1  0  0  0  0
  3 26  1  0  0  0  0
  4 17  2  0  0  0  0
  5  7  1  0  0  0  0
  5 18  1  0  0  0  0
  5 19  1  0  0  0  0
  6 10  1  0  0  0  0
  6 17  1  0  0  0  0
  7  9  1  0  0  0  0
  8 10  1  0  0  0  0
  8 12  2  0  0  0  0
  8 13  1  0  0  0  0
 11 14  2  0  0  0  0
 11 15  1  0  0  0  0
 12 14  1  0  0  0  0
 13 15  2  0  0  0  0
 16 17  1  0  0  0  0
 16 20  2  0  0  0  0
 16 21  1  0  0  0  0
 20 22  1  0  0  0  0
 21 24  2  0  0  0  0
 22 23  2  0  0  0  0
 23 24  1  0  0  0  0
M  END
> <DRUGBANK_ID>
DB04924

> <DRUG_GROUPS>
investigational

> <GENERIC_NAME>
Itopride

> <SYNONYMS>


> <BRANDS>


> <CHEMICAL_FORMULA>
C20H26N2O4

> <MOLECULAR_WEIGHT>
358.4314

> <EXACT_MASS>
358.18925733

> <IUPAC_NAME>
N-({4-[2-(dimethylamino)ethoxy]phenyl}methyl)-3,4-dimethoxybenzamide

> <IUPAC_TRADITIONAL_NAME>
itopride

> <INCHI_IDENTIFIER>
InChI=1S/C20H26N2O4/c1-22(2)11-12-26-17-8-5-15(6-9-17)14-21-20(23)16-7-10-18(24-3)19(13-16)25-4/h5-10,13H,11-12,14H2,1-4H3,(H,21,23)

> <INCHI_KEY>
InChIKey=QQQIECGTIMUVDS-UHFFFAOYSA-N

> <SMILES>
COC1=C(OC)C=C(C=C1)C(=O)NCC1=CC=C(OCCN(C)C)C=C1

> <JCHEM_ACCEPTOR_COUNT>
5

> <JCHEM_DONOR_COUNT>
1

> <JCHEM_ACIDIC_PKA>
14.71

> <JCHEM_BASIC_PKA>
8.77

> <JCHEM_PHYSIOLOGICAL_CHARGE>
1

> <ALOGPS_LOGP>
2.41

> <JCHEM_LOGP>
2.32

> <ALOGPS_LOGS>
-4.1

> <JCHEM_POLARIZABILITY>
40.41

> <JCHEM_POLAR_SURFACE_AREA>
60.03

> <JCHEM_REFRACTIVITY>
102.05

> <JCHEM_ROTATABLE_BOND_COUNT>
9

> <ALOGPS_SOLUBILITY>
2.61e-02 g/l __ 

$$$$
