
  Mrv0541 02231217442D          

 91 99  0  0  1  0            999 V2000
    1.1670   -2.9524    0.0000 C    0  0  0  0  0  0  0  0  0  0  0  0
    0.3550   -3.0189    0.0000 N    0  0  0  0  0  0  0  0  0  0  0  0
   -0.1087   -2.3489    0.0000 C    0  0  2  0  0  0  0  0  0  0  0  0
   -0.9208   -2.4156    0.0000 C    0  0  0  0  0  0  0  0  0  0  0  0
   -1.2692   -3.1522    0.0000 C    0  0  0  0  0  0  0  0  0  0  0  0
   -2.0813   -3.2187    0.0000 C    0  0  0  0  0  0  0  0  0  0  0  0
   -0.8055   -3.8221    0.0000 C    0  0  0  0  0  0  0  0  0  0  0  0
    0.2396   -1.6123    0.0000 C    0  0  0  0  0  0  0  0  0  0  0  0
   -0.2241   -0.9424    0.0000 O    0  0  0  0  0  0  0  0  0  0  0  0
    1.0517   -1.5458    0.0000 N    0  0  0  0  0  0  0  0  0  0  0  0
    1.4001   -0.8092    0.0000 C    0  0  2  0  0  0  0  0  0  0  0  0
    0.7548   -0.2793    0.0000 C    0  0  2  0  0  0  0  0  0  0  0  0
    0.0503   -0.6888    0.0000 O    0  0  0  0  0  0  0  0  0  0  0  0
    0.6124    0.5518    0.0000 C    0  0  0  0  0  0  0  0  0  0  0  0
    0.0485    1.1678    0.0000 C    0  0  0  0  0  0  0  0  0  0  0  0
    0.2725    1.9607    0.0000 C    0  0  0  0  0  0  0  0  0  0  0  0
    1.0793    2.1575    0.0000 C    0  0  0  0  0  0  0  0  0  0  0  0
    1.5582    2.8429    0.0000 O    0  0  0  0  0  0  0  0  0  0  0  0
    2.3470    3.1292    0.0000 C    0  0  0  0  0  0  0  0  0  0  0  0
    2.8992    2.5090    0.0000 C    0  0  0  0  0  0  0  0  0  0  0  0
    3.7164    2.6248    0.0000 C    0  0  0  0  0  0  0  0  0  0  0  0
    3.9673    3.4142    0.0000 C    0  0  0  0  0  0  0  0  0  0  0  0
    3.4506    4.0632    0.0000 C    0  0  0  0  0  0  0  0  0  0  0  0
    3.9099    4.7655    0.0000 O    0  0  0  0  0  0  0  0  0  0  0  0
    4.6679    5.1243    0.0000 C    0  0  0  0  0  0  0  0  0  0  0  0
    5.1028    5.8320    0.0000 C    0  0  0  0  0  0  0  0  0  0  0  0
    5.9285    5.8158    0.0000 C    0  0  0  0  0  0  0  0  0  0  0  0
    6.3484    5.0941    0.0000 C    0  0  0  0  0  0  0  0  0  0  0  0
    5.8988    4.4024    0.0000 C    0  0  0  0  0  0  0  0  0  0  0  0
    5.0851    4.4109    0.0000 C    0  0  0  0  0  0  0  0  0  0  0  0
    4.6760    3.7062    0.0000 Cl   0  0  0  0  0  0  0  0  0  0  0  0
    7.1110    4.7262    0.0000 C    0  0  1  0  0  0  0  0  0  0  0  0
    7.6298    5.3544    0.0000 O    0  0  0  0  0  0  0  0  0  0  0  0
    7.6161    4.0474    0.0000 C    0  0  1  0  0  0  0  0  0  0  0  0
    7.1706    3.3308    0.0000 N    0  0  0  0  0  0  0  0  0  0  0  0
    6.7919    2.5857    0.0000 C    0  0  0  0  0  0  0  0  0  0  0  0
    6.0224    2.8539    0.0000 O    0  0  0  0  0  0  0  0  0  0  0  0
    6.6244    1.7617    0.0000 C    0  0  2  0  0  0  0  0  0  0  0  0
    5.7896    1.6872    0.0000 N    0  0  0  0  0  0  0  0  0  0  0  0
    5.0066    1.9552    0.0000 C    0  0  0  0  0  0  0  0  0  0  0  0
    5.1181    2.7624    0.0000 O    0  0  0  0  0  0  0  0  0  0  0  0
    4.1715    1.9090    0.0000 C    0  0  2  0  0  0  0  0  0  0  0  0
    4.0315    1.0819    0.0000 N    0  0  0  0  0  0  0  0  0  0  0  0
    4.1205    0.2587    0.0000 C    0  0  0  0  0  0  0  0  0  0  0  0
    4.9229    0.1167    0.0000 O    0  0  0  0  0  0  0  0  0  0  0  0
    3.7567   -0.4797    0.0000 C    0  0  1  0  0  0  0  0  0  0  0  0
    4.3454   -1.0429    0.0000 C    0  0  0  0  0  0  0  0  0  0  0  0
    5.1276   -0.8148    0.0000 C    0  0  0  0  0  0  0  0  0  0  0  0
    5.3211   -0.0232    0.0000 N    0  0  0  0  0  0  0  0  0  0  0  0
    5.7164   -1.3781    0.0000 O    0  0  0  0  0  0  0  0  0  0  0  0
    3.0350   -0.8759    0.0000 N    0  0  0  0  0  0  0  0  0  0  0  0
    2.2137   -0.9709    0.0000 C    0  0  0  0  0  0  0  0  0  0  0  0
    2.1807   -1.7850    0.0000 O    0  0  0  0  0  0  0  0  0  0  0  0
    7.1947    1.1257    0.0000 C    0  0  0  0  0  0  0  0  0  0  0  0
    7.0555    0.3050    0.0000 C    0  0  0  0  0  0  0  0  0  0  0  0
    7.6708   -0.2394    0.0000 C    0  0  0  0  0  0  0  0  0  0  0  0
    8.4484    0.0309    0.0000 C    0  0  0  0  0  0  0  0  0  0  0  0
    9.0564   -0.5115    0.0000 O    0  0  0  0  0  0  0  0  0  0  0  0
    8.6303    0.8421    0.0000 C    0  0  0  0  0  0  0  0  0  0  0  0
    7.9892    1.3679    0.0000 C    0  0  0  0  0  0  0  0  0  0  0  0
    9.3657    1.2532    0.0000 C    0  0  0  0  0  0  0  0  0  0  0  0
    9.8615    0.6066    0.0000 C    0  0  0  0  0  0  0  0  0  0  0  0
    9.5493   -0.1461    0.0000 O    0  0  0  0  0  0  0  0  0  0  0  0
   10.6694    0.7127    0.0000 C    0  0  0  0  0  0  0  0  0  0  0  0
   10.9815    1.4653    0.0000 C    0  0  0  0  0  0  0  0  0  0  0  0
   11.7894    1.5713    0.0000 O    0  0  0  0  0  0  0  0  0  0  0  0
   10.4857    2.1120    0.0000 C    0  0  0  0  0  0  0  0  0  0  0  0
    9.6778    2.0059    0.0000 C    0  0  0  0  0  0  0  0  0  0  0  0
    9.4776    2.8260    0.0000 C    0  0  1  0  0  0  0  0  0  0  0  0
    9.1370    3.5838    0.0000 N    0  0  0  0  0  0  0  0  0  0  0  0
    8.4585    4.0683    0.0000 C    0  0  0  0  0  0  0  0  0  0  0  0
    8.6976    4.8472    0.0000 O    0  0  0  0  0  0  0  0  0  0  0  0
   10.2482    3.0908    0.0000 C    0  0  0  0  0  0  0  0  0  0  0  0
   10.4042    3.8905    0.0000 O    0  0  0  0  0  0  0  0  0  0  0  0
   10.8629    2.5559    0.0000 O    0  0  0  0  0  0  0  0  0  0  0  0
    2.6366    3.9069    0.0000 C    0  0  0  0  0  0  0  0  0  0  0  0
    2.1104    4.5291    0.0000 O    0  0  0  0  0  0  0  0  0  0  0  0
    1.3085    4.3844    0.0000 C    0  0  2  0  0  0  0  0  0  0  0  0
    1.0328    3.6177    0.0000 O    0  0  0  0  0  0  0  0  0  0  0  0
    0.2309    3.4731    0.0000 C    0  0  2  0  0  0  0  0  0  0  0  0
   -0.0447    2.7064    0.0000 C    0  0  0  0  0  0  0  0  0  0  0  0
   -0.8466    2.5617    0.0000 O    0  0  0  0  0  0  0  0  0  0  0  0
   -0.2952    4.0952    0.0000 C    0  0  1  0  0  0  0  0  0  0  0  0
   -1.0971    3.9507    0.0000 O    0  0  0  0  0  0  0  0  0  0  0  0
   -0.0196    4.8621    0.0000 C    0  0  2  0  0  0  0  0  0  0  0  0
   -0.5457    5.4842    0.0000 O    0  0  0  0  0  0  0  0  0  0  0  0
    0.7824    5.0066    0.0000 C    0  0  1  0  0  0  0  0  0  0  0  0
    1.0581    5.7733    0.0000 O    0  0  0  0  0  0  0  0  0  0  0  0
    1.6395    1.5492    0.0000 C    0  0  0  0  0  0  0  0  0  0  0  0
    2.4330    1.7347    0.0000 Cl   0  0  0  0  0  0  0  0  0  0  0  0
    1.4108    0.7688    0.0000 C    0  0  0  0  0  0  0  0  0  0  0  0
  1  2  1  0  0  0  0
  3  2  1  6  0  0  0
  3  4  1  0  0  0  0
  4  5  1  0  0  0  0
  5  6  1  0  0  0  0
  5  7  1  0  0  0  0
  3  8  1  0  0  0  0
  8  9  2  0  0  0  0
  8 10  1  0  0  0  0
 11 10  1  6  0  0  0
 11 12  1  0  0  0  0
 12 13  1  6  0  0  0
 12 14  1  0  0  0  0
 14 15  2  0  0  0  0
 15 16  1  0  0  0  0
 16 17  2  0  0  0  0
 17 18  1  0  0  0  0
 18 19  1  0  0  0  0
 19 20  2  0  0  0  0
 20 21  1  0  0  0  0
 21 22  2  0  0  0  0
 22 23  1  0  0  0  0
 23 24  1  0  0  0  0
 24 25  1  0  0  0  0
 25 26  2  0  0  0  0
 26 27  1  0  0  0  0
 27 28  2  0  0  0  0
 28 29  1  0  0  0  0
 29 30  2  0  0  0  0
 25 30  1  0  0  0  0
 30 31  1  0  0  0  0
 28 32  1  0  0  0  0
 32 33  1  1  0  0  0
 32 34  1  0  0  0  0
 34 35  1  6  0  0  0
 35 36  1  0  0  0  0
 36 37  2  0  0  0  0
 36 38  1  0  0  0  0
 38 39  1  0  0  0  0
 39 40  1  0  0  0  0
 40 41  2  0  0  0  0
 40 42  1  0  0  0  0
 42 21  1  6  0  0  0
 42 43  1  0  0  0  0
 43 44  1  0  0  0  0
 44 45  2  0  0  0  0
 44 46  1  0  0  0  0
 46 47  1  1  0  0  0
 47 48  1  0  0  0  0
 48 49  1  0  0  0  0
 48 50  2  0  0  0  0
 46 51  1  0  0  0  0
 51 52  1  0  0  0  0
 11 52  1  0  0  0  0
 52 53  2  0  0  0  0
 38 54  1  1  0  0  0
 54 55  2  0  0  0  0
 55 56  1  0  0  0  0
 56 57  2  0  0  0  0
 57 58  1  0  0  0  0
 57 59  1  0  0  0  0
 59 60  2  0  0  0  0
 54 60  1  0  0  0  0
 59 61  1  0  0  0  0
 61 62  2  0  0  0  0
 62 63  1  0  0  0  0
 62 64  1  0  0  0  0
 64 65  2  0  0  0  0
 65 66  1  0  0  0  0
 65 67  1  0  0  0  0
 67 68  2  0  0  0  0
 61 68  1  0  0  0  0
 68 69  1  0  0  0  0
 69 70  1  0  0  0  0
 70 71  1  0  0  0  0
 34 71  1  0  0  0  0
 71 72  2  0  0  0  0
 69 73  1  1  0  0  0
 73 74  1  0  0  0  0
 73 75  2  0  0  0  0
 23 76  2  0  0  0  0
 19 76  1  0  0  0  0
 76 77  1  0  0  0  0
 78 77  1  6  0  0  0
 78 79  1  0  0  0  0
 79 80  1  0  0  0  0
 80 81  1  6  0  0  0
 81 82  1  0  0  0  0
 80 83  1  0  0  0  0
 83 84  1  1  0  0  0
 83 85  1  0  0  0  0
 85 86  1  6  0  0  0
 85 87  1  0  0  0  0
 78 87  1  0  0  0  0
 87 88  1  1  0  0  0
 17 89  1  0  0  0  0
 89 90  1  0  0  0  0
 89 91  2  0  0  0  0
 14 91  1  0  0  0  0
M  END
> <DRUGBANK_ID>
DB04529

> <DRUG_GROUPS>
experimental

> <GENERIC_NAME>
Desvancosaminyl Vancomycin

> <CHEMICAL_FORMULA>
C59H62Cl2N8O22

> <MOLECULAR_WEIGHT>
1306.07

> <EXACT_MASS>
1304.335571122

> <IUPAC_NAME>
(1R,2R,18R,19R,22R,25R,28R,40R)-22-(carbamoylmethyl)-47,49-dichloro-2,18,32,35,37-pentahydroxy-19-[(2R)-4-methyl-2-(methylamino)pentanamido]-20,23,26,42,44-pentaoxo-48-{[(2S,3R,4S,5S,6R)-3,4,5-trihydroxy-6-(hydroxymethyl)oxan-2-yl]oxy}-7,13-dioxa-21,24,27,41,43-pentaazaoctacyclo[26.14.2.2^{3,6}.2^{14,17}.1^{8,12}.1^{29,33}.0^{10,25}.0^{34,39}]pentaconta-3,5,8(48),9,11,14,16,29,31,33(45),34,36,38,46,49-pentadecaene-40-carboxylic acid

> <IUPAC_TRADITIONAL_NAME>
(1R,2R,18R,19R,22R,25R,28R,40R)-22-(carbamoylmethyl)-47,49-dichloro-2,18,32,35,37-pentahydroxy-19-[(2R)-4-methyl-2-(methylamino)pentanamido]-20,23,26,42,44-pentaoxo-48-{[(2S,3R,4S,5S,6R)-3,4,5-trihydroxy-6-(hydroxymethyl)oxan-2-yl]oxy}-7,13-dioxa-21,24,27,41,43-pentaazaoctacyclo[26.14.2.2^{3,6}.2^{14,17}.1^{8,12}.1^{29,33}.0^{10,25}.0^{34,39}]pentaconta-3,5,8(48),9,11,14,16,29,31,33(45),34,36,38,46,49-pentadecaene-40-carboxylic acid

> <INCHI_IDENTIFIER>
InChI=1S/C59H62Cl2N8O22/c1-20(2)10-30(63-3)52(80)68-44-46(75)22-5-8-34(28(60)12-22)88-36-14-24-15-37(51(36)91-59-50(79)49(78)48(77)38(19-70)90-59)89-35-9-6-23(13-29(35)61)47(76)45-57(85)67-43(58(86)87)27-16-25(71)17-33(73)40(27)26-11-21(4-7-32(26)72)41(54(82)69-45)66-55(83)42(24)65-53(81)31(18-39(62)74)64-56(44)84/h4-9,11-17,20,30-31,38,41-50,59,63,70-73,75-79H,10,18-19H2,1-3H3,(H2,62,74)(H,64,84)(H,65,81)(H,66,83)(H,67,85)(H,68,80)(H,69,82)(H,86,87)/t30-,31-,38-,41-,42-,43-,44-,45-,46-,47-,48-,49+,50-,59+/m1/s1

> <INCHI_KEY>
InChIKey=QCHYVJAUGVHJHX-XSLNMYAPSA-N

> <SMILES>
CN[C@H](CC(C)C)C(=O)N[C@@H]1[C@H](O)C2=CC=C(OC3=CC4=CC(OC5=CC=C(C=C5Cl)[C@@H](O)[C@H]5NC(=O)[C@H](NC(=O)[C@@H]4NC(=O)[C@@H](CC(N)=O)NC1=O)C1=CC=C(O)C(=C1)C1=C(O)C=C(O)C=C1[C@@H](NC5=O)C(O)=O)=C3O[C@@H]1O[C@H](CO)[C@@H](O)[C@H](O)[C@H]1O)C(Cl)=C2

> <JCHEM_ACCEPTOR_COUNT>
21

> <JCHEM_DONOR_COUNT>
18

> <JCHEM_ACIDIC_PKA>
3.08

> <JCHEM_BASIC_PKA>
8.29

> <JCHEM_PHYSIOLOGICAL_CHARGE>
0

> <ALOGPS_LOGP>
1.6

> <JCHEM_LOGP>
-4

> <ALOGPS_LOGS>
-3.8

> <JCHEM_POLARIZABILITY>
121.78

> <JCHEM_POLAR_SURFACE_AREA>
486.01

> <JCHEM_REFRACTIVITY>
310.95

> <JCHEM_ROTATABLE_BOND_COUNT>
11

> <ALOGPS_SOLUBILITY>
2.26e-01 g/l __ 

$$$$
