
  Mrv0541 02231217412D          

 54 58  0  0  1  0            999 V2000
    6.4302   -7.8375    0.0000 C   0  0  0  0  0  0  0  0  0  0  0  0
    6.4302   -8.6625    0.0000 C   0  0  2  0  0  0  0  0  0  0  0  0
    7.1447   -9.0750    0.0000 O   0  0  0  0  0  0  0  0  0  0  0  0
    7.1447   -9.9000    0.0000 C   0  0  2  0  0  0  0  0  0  0  0  0
    7.8592  -10.3125    0.0000 O   0  0  0  0  0  0  0  0  0  0  0  0
    8.5737   -9.9000    0.0000 C   0  0  2  0  0  0  0  0  0  0  0  0
    8.5737   -9.0750    0.0000 C   0  0  2  0  0  0  0  0  0  0  0  0
    7.8592   -8.6625    0.0000 O   0  0  0  0  0  0  0  0  0  0  0  0
    9.2881   -8.6625    0.0000 C   0  0  1  0  0  0  0  0  0  0  0  0
    9.2881   -7.8375    0.0000 O   0  0  0  0  0  0  0  0  0  0  0  0
   10.0026   -9.0750    0.0000 C   0  0  2  0  0  0  0  0  0  0  0  0
   10.7171   -8.6625    0.0000 N   0  0  0  0  0  0  0  0  0  0  0  0
   11.4315   -9.0750    0.0000 C   0  0  2  0  0  0  0  0  0  0  0  0
   12.1460   -8.6625    0.0000 C   0  0  1  0  0  0  0  0  0  0  0  0
   12.1460   -7.8375    0.0000 C   0  0  0  0  0  0  0  0  0  0  0  0
   12.8605   -9.0750    0.0000 O   0  0  0  0  0  0  0  0  0  0  0  0
   12.8605   -9.9000    0.0000 C   0  0  1  0  0  0  0  0  0  0  0  0
   13.5749  -10.3125    0.0000 O   0  0  0  0  0  0  0  0  0  0  0  0
   14.2894   -9.9000    0.0000 C   0  0  2  0  0  0  0  0  0  0  0  0
   15.0039  -10.3125    0.0000 C   0  0  2  0  0  0  0  0  0  0  0  0
   15.0039  -11.1375    0.0000 C   0  0  0  0  0  0  0  0  0  0  0  0
   15.7184  -11.5500    0.0000 O   0  0  0  0  0  0  0  0  0  0  0  0
   15.7184   -9.9000    0.0000 O   0  0  0  0  0  0  0  0  0  0  0  0
   15.7184   -9.0750    0.0000 C   0  0  1  0  0  0  0  0  0  0  0  0
   16.4328   -8.6625    0.0000 O   0  0  0  0  0  0  0  0  0  0  0  0
   17.1473   -9.0750    0.0000 C   0  0  2  0  0  0  0  0  0  0  0  0
   17.8618   -8.6625    0.0000 C   0  0  2  0  0  0  0  0  0  0  0  0
   17.8618   -7.8375    0.0000 C   0  0  0  0  0  0  0  0  0  0  0  0
   18.5762   -7.4250    0.0000 O   0  0  0  0  0  0  0  0  0  0  0  0
   18.5762   -9.0750    0.0000 O   0  0  0  0  0  0  0  0  0  0  0  0
   18.5762   -9.9000    0.0000 C   0  0  1  0  0  0  0  0  0  0  0  0
   19.2907  -10.3125    0.0000 O   0  0  0  0  0  0  0  0  0  0  0  0
   17.8618  -10.3125    0.0000 C   0  0  2  0  0  0  0  0  0  0  0  0
   17.8618  -11.1375    0.0000 O   0  0  0  0  0  0  0  0  0  0  0  0
   17.1473   -9.9000    0.0000 C   0  0  1  0  0  0  0  0  0  0  0  0
   16.4328  -10.3125    0.0000 O   0  0  0  0  0  0  0  0  0  0  0  0
   15.0039   -8.6625    0.0000 C   0  0  2  0  0  0  0  0  0  0  0  0
   15.0039   -7.8375    0.0000 O   0  0  0  0  0  0  0  0  0  0  0  0
   14.2894   -9.0750    0.0000 C   0  0  1  0  0  0  0  0  0  0  0  0
   13.5749   -8.6625    0.0000 O   0  0  0  0  0  0  0  0  0  0  0  0
   12.1460  -10.3125    0.0000 C   0  0  2  0  0  0  0  0  0  0  0  0
   12.1460  -11.1375    0.0000 O   0  0  0  0  0  0  0  0  0  0  0  0
   11.4315   -9.9000    0.0000 C   0  0  1  0  0  0  0  0  0  0  0  0
   10.7171  -10.3125    0.0000 O   0  0  0  0  0  0  0  0  0  0  0  0
   10.0026   -9.9000    0.0000 C   0  0  0  0  0  0  0  0  0  0  0  0
    9.2881  -10.3125    0.0000 C   0  0  0  0  0  0  0  0  0  0  0  0
    9.2881  -11.1375    0.0000 C   0  0  0  0  0  0  0  0  0  0  0  0
    8.5737  -11.5500    0.0000 O   0  0  0  0  0  0  0  0  0  0  0  0
    6.4302  -10.3125    0.0000 C   0  0  1  0  0  0  0  0  0  0  0  0
    6.4302  -11.1375    0.0000 O   0  0  0  0  0  0  0  0  0  0  0  0
    5.7158   -9.9000    0.0000 C   0  0  2  0  0  0  0  0  0  0  0  0
    5.0013  -10.3125    0.0000 O   0  0  0  0  0  0  0  0  0  0  0  0
    5.7158   -9.0750    0.0000 C   0  0  1  0  0  0  0  0  0  0  0  0
    5.0013   -8.6625    0.0000 O   0  0  0  0  0  0  0  0  0  0  0  0
  2  1  1  6  0  0  0
  2  3  1  0  0  0  0
  3  4  1  0  0  0  0
  4  5  1  6  0  0  0
  6  5  1  6  0  0  0
  6  7  1  0  0  0  0
  7  8  1  6  0  0  0
  7  9  1  0  0  0  0
  9 10  1  1  0  0  0
  9 11  1  0  0  0  0
 11 12  1  6  0  0  0
 13 12  1  6  0  0  0
 13 14  1  0  0  0  0
 14 15  1  1  0  0  0
 14 16  1  0  0  0  0
 16 17  1  0  0  0  0
 17 18  1  1  0  0  0
 19 18  1  1  0  0  0
 19 20  1  0  0  0  0
 20 21  1  1  0  0  0
 21 22  1  0  0  0  0
 20 23  1  0  0  0  0
 23 24  1  0  0  0  0
 24 25  1  6  0  0  0
 26 25  1  6  0  0  0
 26 27  1  0  0  0  0
 27 28  1  6  0  0  0
 28 29  1  0  0  0  0
 27 30  1  0  0  0  0
 30 31  1  0  0  0  0
 31 32  1  1  0  0  0
 31 33  1  0  0  0  0
 33 34  1  6  0  0  0
 33 35  1  0  0  0  0
 26 35  1  0  0  0  0
 35 36  1  1  0  0  0
 24 37  1  0  0  0  0
 37 38  1  1  0  0  0
 37 39  1  0  0  0  0
 19 39  1  0  0  0  0
 39 40  1  6  0  0  0
 17 41  1  0  0  0  0
 41 42  1  6  0  0  0
 41 43  1  0  0  0  0
 13 43  1  0  0  0  0
 43 44  1  1  0  0  0
 11 45  1  0  0  0  0
 45 46  2  0  0  0  0
  6 46  1  0  0  0  0
 46 47  1  0  0  0  0
 47 48  1  0  0  0  0
  4 49  1  0  0  0  0
 49 50  1  1  0  0  0
 49 51  1  0  0  0  0
 51 52  1  6  0  0  0
 51 53  1  0  0  0  0
  2 53  1  0  0  0  0
 53 54  1  1  0  0  0
M  END
> <DRUGBANK_ID>
DB04439

> <DRUG_GROUPS>
experimental

> <GENERIC_NAME>
Modified Acarbose Pentasaccharide

> <CHEMICAL_FORMULA>
C31H53NO22

> <MOLECULAR_WEIGHT>
791.746

> <EXACT_MASS>
791.305922385

> <IUPAC_NAME>
(2R,3S,4R,5R,6S)-2-{[(1S,4R,5S,6R)-4-{[(2R,3S,4S,5R,6S)-6-{[(2S,3S,4R,5R,6S)-4,5-dihydroxy-2-(hydroxymethyl)-6-{[(2S,3S,4R,5R,6R)-4,5,6-trihydroxy-2-(hydroxymethyl)oxan-3-yl]oxy}oxan-3-yl]oxy}-4,5-dihydroxy-2-methyloxan-3-yl]amino}-5,6-dihydroxy-2-(hydroxymethyl)cyclohex-2-en-1-yl]oxy}-6-methyloxane-3,4,5-triol

> <IUPAC_TRADITIONAL_NAME>
(2R,3S,4R,5R,6S)-2-{[(1S,4R,5S,6R)-4-{[(2R,3S,4S,5R,6S)-6-{[(2S,3S,4R,5R,6S)-4,5-dihydroxy-2-(hydroxymethyl)-6-{[(2S,3S,4R,5R,6R)-4,5,6-trihydroxy-2-(hydroxymethyl)oxan-3-yl]oxy}oxan-3-yl]oxy}-4,5-dihydroxy-2-methyloxan-3-yl]amino}-5,6-dihydroxy-2-(hydroxymethyl)cyclohex-2-en-1-yl]oxy}-6-methyloxane-3,4,5-triol

> <INCHI_IDENTIFIER>
InChI=1S/C31H53NO22/c1-7-13(32-10-3-9(4-33)25(18(40)15(10)37)52-30-23(45)17(39)14(36)8(2)49-30)16(38)22(44)29(48-7)53-27-12(6-35)51-31(24(46)20(27)42)54-26-11(5-34)50-28(47)21(43)19(26)41/h3,7-8,10-47H,4-6H2,1-2H3/t7-,8+,10-,11+,12+,13-,14+,15+,16+,17-,18-,19-,20-,21-,22-,23+,24-,25+,26-,27-,28-,29+,30-,31+/m1/s1

> <INCHI_KEY>
InChIKey=QWNATFSCUHKKDP-KHDASAEXSA-N

> <SMILES>
C[C@@H]1O[C@H](O[C@@H]2[C@H](O)[C@@H](O)[C@H](N[C@@H]3[C@@H](C)O[C@@H](O[C@@H]4[C@H](CO)O[C@@H](O[C@@H]5[C@H](CO)O[C@@H](O)[C@H](O)[C@H]5O)[C@H](O)[C@H]4O)[C@H](O)[C@H]3O)C=C2CO)[C@@H](O)[C@H](O)[C@H]1O

> <JCHEM_ACCEPTOR_COUNT>
23

> <JCHEM_DONOR_COUNT>
16

> <JCHEM_ACIDIC_PKA>
11.2

> <JCHEM_BASIC_PKA>
7.33

> <JCHEM_PHYSIOLOGICAL_CHARGE>
1

> <ALOGPS_LOGP>
-2.4

> <JCHEM_LOGP>
-8.3

> <ALOGPS_LOGS>
-0.94

> <JCHEM_POLARIZABILITY>
76.24

> <JCHEM_POLAR_SURFACE_AREA>
380.09

> <JCHEM_REFRACTIVITY>
168.47

> <JCHEM_ROTATABLE_BOND_COUNT>
11

> <ALOGPS_SOLUBILITY>
8.99e+01 g/l __ 

$$$$
