
  Mrv0541 02231218032D          

 24 27  0  0  1  0            999 V2000
    6.2068    1.2552    0.0000 O   0  0  0  0  0  0  0  0  0  0  0  0
    4.1129    1.6713    0.0000 O   0  0  0  0  0  0  0  0  0  0  0  0
    5.1704    3.1215    0.0000 O   0  0  0  0  0  0  0  0  0  0  0  0
    1.6500   -2.7866    0.0000 O   0  0  0  0  0  0  0  0  0  0  0  0
    7.6296    2.2271    0.0000 O   0  0  0  0  0  0  0  0  0  0  0  0
    5.1654    0.2174    0.0000 N   0  0  0  0  0  0  0  0  0  0  0  0
    3.6703   -2.0965    0.0000 N   0  0  0  0  0  0  0  0  0  0  0  0
    5.1654   -1.1105    0.0000 N   0  0  0  0  0  0  0  0  0  0  0  0
    3.6703    0.3785    0.0000 N   0  0  0  0  0  0  0  0  0  0  0  0
    2.9558   -0.8590    0.0000 N   0  0  0  0  0  0  0  0  0  0  0  0
    5.4217    1.0016    0.0000 C   0  0  1  0  0  0  0  0  0  0  0  0
    4.9379    1.6698    0.0000 C   0  0  1  0  0  0  0  0  0  0  0  0
    5.4240    2.3365    0.0000 C   0  0  1  0  0  0  0  0  0  0  0  0
    6.2082    2.0802    0.0000 C   0  0  1  0  0  0  0  0  0  0  0  0
    6.8765    2.5640    0.0000 C   0  0  0  0  0  0  0  0  0  0  0  0
    2.9558   -2.5090    0.0000 C   0  0  2  0  0  0  0  0  0  0  0  0
    4.3847   -0.0340    0.0000 C   0  0  0  0  0  0  0  0  0  0  0  0
    2.8695   -3.3296    0.0000 C   0  0  0  0  0  0  0  0  0  0  0  0
    4.3847   -0.8590    0.0000 C   0  0  0  0  0  0  0  0  0  0  0  0
    5.6469   -0.4465    0.0000 C   0  0  0  0  0  0  0  0  0  0  0  0
    2.2021   -2.1735    0.0000 C   0  0  0  0  0  0  0  0  0  0  0  0
    3.6703   -1.2715    0.0000 C   0  0  0  0  0  0  0  0  0  0  0  0
    2.0625   -3.5011    0.0000 C   0  0  0  0  0  0  0  0  0  0  0  0
    2.9558   -0.0340    0.0000 C   0  0  0  0  0  0  0  0  0  0  0  0
  1 11  1  0  0  0  0
  1 14  1  0  0  0  0
 12  2  1  6  0  0  0
 13  3  1  6  0  0  0
  4 21  1  0  0  0  0
  4 23  1  0  0  0  0
  5 15  1  0  0  0  0
 11  6  1  1  0  0  0
  6 17  1  0  0  0  0
  6 20  1  0  0  0  0
 16  7  1  6  0  0  0
  7 22  1  0  0  0  0
  8 19  1  0  0  0  0
  8 20  2  0  0  0  0
  9 17  2  0  0  0  0
  9 24  1  0  0  0  0
 10 22  1  0  0  0  0
 10 24  2  0  0  0  0
 11 12  1  0  0  0  0
 12 13  1  0  0  0  0
 13 14  1  0  0  0  0
 14 15  1  1  0  0  0
 16 18  1  0  0  0  0
 16 21  1  0  0  0  0
 17 19  1  0  0  0  0
 18 23  1  0  0  0  0
 19 22  2  0  0  0  0
M  END
> <DRUGBANK_ID>
DB04954

> <DRUG_GROUPS>
investigational

> <GENERIC_NAME>
Tecadenoson

> <CHEMICAL_FORMULA>
C14H19N5O5

> <MOLECULAR_WEIGHT>
337.3312

> <EXACT_MASS>
337.138618743

> <IUPAC_NAME>
(2R,3S,4R,5R)-2-(hydroxymethyl)-5-(6-{[(3R)-oxolan-3-yl]amino}-9H-purin-9-yl)oxolane-3,4-diol

> <IUPAC_TRADITIONAL_NAME>
(2R,3S,4R,5R)-2-(hydroxymethyl)-5-{6-[(3R)-oxolan-3-ylamino]purin-9-yl}oxolane-3,4-diol

> <INCHI_IDENTIFIER>
InChI=1S/C14H19N5O5/c20-3-8-10(21)11(22)14(24-8)19-6-17-9-12(15-5-16-13(9)19)18-7-1-2-23-4-7/h5-8,10-11,14,20-22H,1-4H2,(H,15,16,18)/t7-,8-,10-,11-,14-/m1/s1

> <INCHI_KEY>
InChIKey=OESBDSFYJMDRJY-BAYCTPFLSA-N

> <SMILES>
OC[C@H]1O[C@H]([C@H](O)[C@@H]1O)N1C=NC2=C(N[C@@H]3CCOC3)N=CN=C12

> <JCHEM_ACCEPTOR_COUNT>
9

> <JCHEM_DONOR_COUNT>
4

> <JCHEM_ACIDIC_PKA>
12.45

> <JCHEM_BASIC_PKA>
4.84

> <JCHEM_PHYSIOLOGICAL_CHARGE>
0

> <ALOGPS_LOGP>
-0.47

> <JCHEM_LOGP>
-1.9

> <ALOGPS_LOGS>
-1.6

> <JCHEM_POLARIZABILITY>
33.24

> <JCHEM_POLAR_SURFACE_AREA>
134.78

> <JCHEM_REFRACTIVITY>
82.3

> <JCHEM_ROTATABLE_BOND_COUNT>
4

> <ALOGPS_SOLUBILITY>
8.22e+00 g/l __ 

$$$$
