
  Mrv0541 02231217512D          

 29 32  0  0  1  0            999 V2000
    4.9924   -0.7930    0.0000 C   0  0  0  0  0  0  0  0  0  0  0  0
    4.9924   -1.6180    0.0000 C   0  0  2  0  0  0  0  0  0  0  0  0
    5.7069   -2.0305    0.0000 C   0  0  0  0  0  0  0  0  0  0  0  0
    6.4214   -1.6180    0.0000 C   0  0  0  0  0  0  0  0  0  0  0  0
    7.1358   -2.0305    0.0000 C   0  0  0  0  0  0  0  0  0  0  0  0
    7.8503   -1.6180    0.0000 C   0  0  0  0  0  0  0  0  0  0  0  0
    8.5648   -1.2055    0.0000 C   0  0  0  0  0  0  0  0  0  0  0  0
    7.4378   -0.9035    0.0000 C   0  0  0  0  0  0  0  0  0  0  0  0
    8.2628   -2.3325    0.0000 O   0  0  0  0  0  0  0  0  0  0  0  0
    4.2780   -2.0305    0.0000 C   0  0  1  0  0  0  0  0  0  0  0  0
    4.1917   -2.8510    0.0000 C   0  0  0  0  0  0  0  0  0  0  0  0
    3.3847   -3.0225    0.0000 C   0  0  0  0  0  0  0  0  0  0  0  0
    2.9722   -2.3080    0.0000 C   0  0  1  0  0  0  0  0  0  0  0  0
    2.1653   -2.1365    0.0000 C   0  0  2  0  0  0  0  0  0  0  0  0
    1.6132   -2.7496    0.0000 C   0  0  0  0  0  0  0  0  0  0  0  0
    0.8063   -2.5781    0.0000 C   0  0  0  0  0  0  0  0  0  0  0  0
    0.5513   -1.7935    0.0000 C   0  0  0  0  0  0  0  0  0  0  0  0
   -0.2556   -1.6219    0.0000 C   0  0  0  0  0  0  0  0  0  0  0  0
   -0.5106   -0.8373    0.0000 C   0  0  1  0  0  0  0  0  0  0  0  0
   -1.3176   -0.6658    0.0000 O   0  0  0  0  0  0  0  0  0  0  0  0
    0.0414   -0.2242    0.0000 C   0  0  0  0  0  0  0  0  0  0  0  0
    0.8484   -0.3957    0.0000 C   0  0  0  0  0  0  0  0  0  0  0  0
    1.1034   -1.1804    0.0000 C   0  0  1  0  0  0  0  0  0  0  0  0
    1.6554   -0.5673    0.0000 C   0  0  0  0  0  0  0  0  0  0  0  0
    1.9103   -1.3519    0.0000 C   0  0  1  0  0  0  0  0  0  0  0  0
    2.4624   -0.7388    0.0000 C   0  0  0  0  0  0  0  0  0  0  0  0
    3.2693   -0.9103    0.0000 C   0  0  0  0  0  0  0  0  0  0  0  0
    3.5243   -1.6949    0.0000 C   0  0  2  0  0  0  0  0  0  0  0  0
    4.1374   -1.1429    0.0000 C   0  0  0  0  0  0  0  0  0  0  0  0
  2  1  1  6  0  0  0
  2  3  1  0  0  0  0
  3  4  1  0  0  0  0
  4  5  1  0  0  0  0
  5  6  1  0  0  0  0
  6  7  1  0  0  0  0
  6  8  1  0  0  0  0
  6  9  1  0  0  0  0
 10  2  1  1  0  0  0
 10 11  1  0  0  0  0
 11 12  1  0  0  0  0
 13 12  1  1  0  0  0
 13 14  1  0  0  0  0
 14 15  1  6  0  0  0
 15 16  1  0  0  0  0
 16 17  2  0  0  0  0
 17 18  1  0  0  0  0
 18 19  1  0  0  0  0
 19 20  1  1  0  0  0
 19 21  1  0  0  0  0
 21 22  1  0  0  0  0
 22 23  1  0  0  0  0
 17 23  1  0  0  0  0
 23 24  1  1  0  0  0
 23 25  1  0  0  0  0
 14 25  1  0  0  0  0
 25 26  1  1  0  0  0
 26 27  1  0  0  0  0
 27 28  1  0  0  0  0
 10 28  1  0  0  0  0
 13 28  1  0  0  0  0
 28 29  1  1  0  0  0
M  END
> <DRUGBANK_ID>
DB04705

> <DRUG_GROUPS>
experimental

> <GENERIC_NAME>
(3BETA)-CHOLEST-5-ENE-3,25-DIOL

> <CHEMICAL_FORMULA>
C27H46O2

> <MOLECULAR_WEIGHT>
402.6529

> <EXACT_MASS>
402.349780716

> <IUPAC_NAME>
(1S,2R,5S,10S,11S,14R,15R)-14-[(2R)-6-hydroxy-6-methylheptan-2-yl]-2,15-dimethyltetracyclo[8.7.0.0^{2,7}.0^{11,15}]heptadec-7-en-5-ol

> <IUPAC_TRADITIONAL_NAME>
25-hydroxycholesterol

> <INCHI_IDENTIFIER>
InChI=1S/C27H46O2/c1-18(7-6-14-25(2,3)29)22-10-11-23-21-9-8-19-17-20(28)12-15-26(19,4)24(21)13-16-27(22,23)5/h8,18,20-24,28-29H,6-7,9-17H2,1-5H3/t18-,20+,21+,22-,23+,24+,26+,27-/m1/s1

> <INCHI_KEY>
InChIKey=INBGSXNNRGWLJU-ZHHJOTBYSA-N

> <SMILES>
C[C@H](CCCC(C)(C)O)[C@H]1CC[C@H]2[C@@H]3CC=C4C[C@@H](O)CC[C@]4(C)[C@H]3CC[C@]12C

> <JCHEM_ACCEPTOR_COUNT>
2

> <JCHEM_DONOR_COUNT>
2

> <JCHEM_ACIDIC_PKA>
18.2

> <JCHEM_BASIC_PKA>
-1

> <JCHEM_PHYSIOLOGICAL_CHARGE>
0

> <ALOGPS_LOGP>
5.95

> <JCHEM_LOGP>
5.64

> <ALOGPS_LOGS>
-6.2

> <JCHEM_POLARIZABILITY>
51.11

> <JCHEM_POLAR_SURFACE_AREA>
40.46

> <JCHEM_REFRACTIVITY>
122.45

> <JCHEM_ROTATABLE_BOND_COUNT>
5

> <ALOGPS_SOLUBILITY>
2.44e-04 g/l __ 

$$$$
