BHB
  Mrv0541 02231217202D          

 20 21  0  0  0  0            999 V2000
   -1.4763    2.3967    0.0000 N   0  0  0  0  0  0  0  0  0  0  0  0
   -1.4763    1.5717    0.0000 C   0  0  0  0  0  0  0  0  0  0  0  0
   -0.7618    1.1592    0.0000 C   0  0  0  0  0  0  0  0  0  0  0  0
   -0.7618    0.3342    0.0000 C   0  0  0  0  0  0  0  0  0  0  0  0
   -1.4763   -0.0783    0.0000 C   0  0  0  0  0  0  0  0  0  0  0  0
   -1.4763   -0.9033    0.0000 N   0  0  0  0  0  0  0  0  0  0  0  0
   -2.1908   -1.3158    0.0000 C   0  0  0  0  0  0  0  0  0  0  0  0
   -2.1908   -2.1408    0.0000 N   0  0  0  0  0  0  0  0  0  0  0  0
   -2.9052   -0.9033    0.0000 N   0  0  0  0  0  0  0  0  0  0  0  0
   -2.9052   -0.0783    0.0000 C   0  0  0  0  0  0  0  0  0  0  0  0
   -3.6197    0.3342    0.0000 O   0  0  0  0  0  0  0  0  0  0  0  0
   -2.1908    0.3342    0.0000 C   0  0  0  0  0  0  0  0  0  0  0  0
   -2.1908    1.1592    0.0000 C   0  0  0  0  0  0  0  0  0  0  0  0
   -0.0474   -0.0783    0.0000 C   0  0  0  0  0  0  0  0  0  0  0  0
    0.6671    0.3342    0.0000 S   0  0  0  0  0  0  0  0  0  0  0  0
    1.3816   -0.0783    0.0000 C   0  0  0  0  0  0  0  0  0  0  0  0
    2.0961    0.3342    0.0000 C   0  0  0  0  0  0  0  0  0  0  0  0
    2.8105   -0.0783    0.0000 N   0  0  0  0  0  0  0  0  0  0  0  0
    3.5250    0.3342    0.0000 C   0  0  0  0  0  0  0  0  0  0  0  0
    2.8105   -0.9033    0.0000 C   0  0  0  0  0  0  0  0  0  0  0  0
  1  2  1  0  0  0  0
  2  3  2  0  0  0  0
  2 13  1  0  0  0  0
  3  4  1  0  0  0  0
  4  5  2  0  0  0  0
  4 14  1  0  0  0  0
  5  6  1  0  0  0  0
  5 12  1  0  0  0  0
  6  7  2  0  0  0  0
  7  8  1  0  0  0  0
  7  9  1  0  0  0  0
  9 10  1  0  0  0  0
 10 11  2  0  0  0  0
 10 12  1  0  0  0  0
 12 13  2  0  0  0  0
 14 15  1  0  0  0  0
 15 16  1  0  0  0  0
 16 17  1  0  0  0  0
 17 18  1  0  0  0  0
 18 19  1  0  0  0  0
 18 20  1  0  0  0  0
M  END
> <DRUGBANK_ID>
DB04004

> <DRUG_GROUPS>
experimental

> <GENERIC_NAME>
2,6-Diamino-8-(2-Dimethylaminoethylsulfanylmethyl)-3h-Quinazolin-4-One

> <CHEMICAL_FORMULA>
C13H19N5OS

> <MOLECULAR_WEIGHT>
293.388

> <EXACT_MASS>
293.131030945

> <IUPAC_NAME>
2,6-diamino-8-({[2-(dimethylamino)ethyl]sulfanyl}methyl)-3,4-dihydroquinazolin-4-one

> <IUPAC_TRADITIONAL_NAME>
2,6-diamino-8-({[2-(dimethylamino)ethyl]sulfanyl}methyl)-3H-quinazolin-4-one

> <INCHI_IDENTIFIER>
InChI=1S/C13H19N5OS/c1-18(2)3-4-20-7-8-5-9(14)6-10-11(8)16-13(15)17-12(10)19/h5-6H,3-4,7,14H2,1-2H3,(H3,15,16,17,19)

> <INCHI_KEY>
InChIKey=FDIXHXDLCOSDFY-UHFFFAOYSA-N

> <SMILES>
CN(C)CCSCC1=C2N=C(N)NC(=O)C2=CC(N)=C1

> <JCHEM_ACCEPTOR_COUNT>
5

> <JCHEM_DONOR_COUNT>
3

> <JCHEM_ACIDIC_PKA>
11.4

> <JCHEM_BASIC_PKA>
8.96

> <JCHEM_PHYSIOLOGICAL_CHARGE>
1

> <ALOGPS_LOGP>
0.01

> <JCHEM_LOGP>
0.3

> <ALOGPS_LOGS>
-2.8

> <JCHEM_POLARIZABILITY>
32.13

> <JCHEM_POLAR_SURFACE_AREA>
96.74

> <JCHEM_REFRACTIVITY>
86.61

> <JCHEM_ROTATABLE_BOND_COUNT>
5

> <ALOGPS_SOLUBILITY>
4.75e-01 g/l __ 

$$$$
