
  Mrv0541 02231217452D          

 30 36  0  0  0  0            999 V2000
    4.7452    0.4987    0.0000 C    0  0  0  0  0  0  0  0  0  0  0  0
    4.2602    1.1662    0.0000 C    0  0  0  0  0  0  0  0  0  0  0  0
    3.4398    1.0799    0.0000 C    0  0  0  0  0  0  0  0  0  0  0  0
    3.1042    0.3263    0.0000 N    0  0  0  0  0  0  0  0  0  0  0  0
    3.5891   -0.3412    0.0000 C    0  0  0  0  0  0  0  0  0  0  0  0
    4.4096   -0.2549    0.0000 C    0  0  0  0  0  0  0  0  0  0  0  0
    3.1042   -1.0086    0.0000 C    0  0  0  0  0  0  0  0  0  0  0  0
    3.2757   -1.8156    0.0000 C    0  0  0  0  0  0  0  0  0  0  0  0
    2.6208   -2.4765    0.0000 C    0  0  0  0  0  0  0  0  0  0  0  0
    1.9198   -2.0038    0.0000 C    0  0  0  0  0  0  0  0  0  0  0  0
    1.7065   -1.3057    0.0000 C    0  0  0  0  0  0  0  0  0  0  0  0
    2.6463   -0.8791    0.0000 N    0  0  0  0  0  0  0  0  0  0  0  0
    2.3196    0.0713    0.0000 Os   0  2  0  0  0  0  0  0  0  0  0  0
    2.3196    0.8963    0.0000 N    0  0  0  0  0  0  0  0  0  0  0  0
    1.6521    1.3812    0.0000 C    0  0  0  0  0  0  0  0  0  0  0  0
    1.9071    2.1659    0.0000 C    0  0  0  0  0  0  0  0  0  0  0  0
    2.7321    2.1659    0.0000 N    0  0  0  0  0  0  0  0  0  0  0  0
    2.9870    1.3812    0.0000 C    0  0  0  0  0  0  0  0  0  0  0  0
    2.3196   -0.7537    0.0000 N    0  0  0  0  0  0  0  0  0  0  0  0
    2.9327   -1.3057    0.0000 C    0  0  0  0  0  0  0  0  0  0  0  0
    2.7611   -2.1127    0.0000 C    0  0  0  0  0  0  0  0  0  0  0  0
    1.9765   -2.3676    0.0000 C    0  0  0  0  0  0  0  0  0  0  0  0
    1.3634   -1.8156    0.0000 C    0  0  0  0  0  0  0  0  0  0  0  0
    1.5350   -1.0086    0.0000 C    0  0  0  0  0  0  0  0  0  0  0  0
    1.0500   -0.3412    0.0000 C    0  0  0  0  0  0  0  0  0  0  0  0
    0.2295   -0.2549    0.0000 C    0  0  0  0  0  0  0  0  0  0  0  0
   -0.1060    0.4987    0.0000 C    0  0  0  0  0  0  0  0  0  0  0  0
    0.3789    1.1662    0.0000 C    0  0  0  0  0  0  0  0  0  0  0  0
    1.1994    1.0799    0.0000 C    0  0  0  0  0  0  0  0  0  0  0  0
    1.5350    0.3263    0.0000 N    0  0  0  0  0  0  0  0  0  0  0  0
  1  2  4  0  0  0  0
  2  3  4  0  0  0  0
  3  4  4  0  0  0  0
  4  5  4  0  0  0  0
  5  6  4  0  0  0  0
  1  6  4  0  0  0  0
  5  7  1  0  0  0  0
  7  8  4  0  0  0  0
  8  9  4  0  0  0  0
  9 10  4  0  0  0  0
 10 11  4  0  0  0  0
 11 12  4  0  0  0  0
  7 12  4  0  0  0  0
 12 13  1  0  0  0  0
  4 13  1  0  0  0  0
 13 14  1  0  0  0  0
 14 15  1  0  0  0  0
 15 16  2  0  0  0  0
 16 17  1  0  0  0  0
 17 18  2  0  0  0  0
 14 18  1  0  0  0  0
 13 19  1  0  0  0  0
 19 20  4  0  0  0  0
 20 21  4  0  0  0  0
 21 22  4  0  0  0  0
 22 23  4  0  0  0  0
 23 24  4  0  0  0  0
 19 24  4  0  0  0  0
 24 25  1  0  0  0  0
 25 26  4  0  0  0  0
 26 27  4  0  0  0  0
 27 28  4  0  0  0  0
 28 29  4  0  0  0  0
 29 30  4  0  0  0  0
 13 30  1  0  0  0  0
 25 30  4  0  0  0  0
M  END
> <DRUGBANK_ID>
DB04550

> <DRUG_GROUPS>
experimental

> <GENERIC_NAME>
Delta-Bis(2,2'-Bipyridine)Imidazole Osmium (Ii)

> <CHEMICAL_FORMULA>
C23H19N6Os

> <MOLECULAR_WEIGHT>
569.67

> <EXACT_MASS>
571.128598685

> <INCHI_IDENTIFIER>
InChI=1S/2C10H8N2.C3H3N2.Os/c2*1-3-7-11-9(5-1)10-6-2-4-8-12-10;1-2-5-3-4-1;/h2*1-8H;1-3H;/q-2;;-1;+5/b10-9-;;;

> <INCHI_KEY>
InChIKey=IETGIFYQNXVTPU-BZKIHGKGSA-N

> <SMILES>
C1=CN(C=N1)[Os++]123n4ccccc4-c4ccccn14.c1ccn2c(c1)-c1ccccn31

> <JCHEM_ACCEPTOR_COUNT>
1

> <JCHEM_DONOR_COUNT>
0

> <JCHEM_BASIC_PKA>
4.27

> <JCHEM_PHYSIOLOGICAL_CHARGE>
2

> <JCHEM_LOGP>
2.64

> <JCHEM_POLARIZABILITY>
42.28

> <JCHEM_POLAR_SURFACE_AREA>
37.54

> <JCHEM_REFRACTIVITY>
120.37

> <JCHEM_ROTATABLE_BOND_COUNT>
1 __ 

$$$$
