
  Mrv0541 02231217232D          

 14 15  0  0  1  0            999 V2000
   -0.5837   -1.4124    0.0000 N   0  0  0  0  0  0  0  0  0  0  0  0
   -0.1712   -0.6979    0.0000 C   0  0  1  0  0  0  0  0  0  0  0  0
    0.6538   -0.6979    0.0000 C   0  0  0  0  0  0  0  0  0  0  0  0
    1.1387   -0.0305    0.0000 C   0  0  0  0  0  0  0  0  0  0  0  0
    1.9233   -0.2854    0.0000 C   0  0  0  0  0  0  0  0  0  0  0  0
    2.6378    0.1271    0.0000 C   0  0  0  0  0  0  0  0  0  0  0  0
    3.3523   -0.2854    0.0000 C   0  0  0  0  0  0  0  0  0  0  0  0
    3.3523   -1.1104    0.0000 C   0  0  0  0  0  0  0  0  0  0  0  0
    2.6378   -1.5229    0.0000 C   0  0  0  0  0  0  0  0  0  0  0  0
    1.9233   -1.1104    0.0000 C   0  0  0  0  0  0  0  0  0  0  0  0
    1.1387   -1.3654    0.0000 C   0  0  0  0  0  0  0  0  0  0  0  0
   -0.5837    0.0165    0.0000 C   0  0  0  0  0  0  0  0  0  0  0  0
   -1.4087    0.0165    0.0000 O   0  0  0  0  0  0  0  0  0  0  0  0
   -0.1712    0.7310    0.0000 O   0  0  0  0  0  0  0  0  0  0  0  0
  2  1  1  6  0  0  0
  2  3  1  0  0  0  0
  3  4  1  0  0  0  0
  4  5  1  0  0  0  0
  5  6  2  0  0  0  0
  6  7  1  0  0  0  0
  7  8  2  0  0  0  0
  8  9  1  0  0  0  0
  9 10  2  0  0  0  0
  5 10  1  0  0  0  0
 10 11  1  0  0  0  0
  3 11  1  0  0  0  0
  2 12  1  0  0  0  0
 12 13  1  0  0  0  0
 12 14  2  0  0  0  0
M  END
> <DRUGBANK_ID>
DB04061

> <DRUG_GROUPS>
experimental

> <GENERIC_NAME>
Alpha-Amino-2-Indanacetic Acid

> <CHEMICAL_FORMULA>
C11H13NO2

> <MOLECULAR_WEIGHT>
191.2264

> <EXACT_MASS>
191.094628665

> <IUPAC_NAME>
(2S)-2-amino-2-(2,3-dihydro-1H-inden-2-yl)acetic acid

> <IUPAC_TRADITIONAL_NAME>
(S)-amino(2,3-dihydro-1H-inden-2-yl)acetic acid

> <INCHI_IDENTIFIER>
InChI=1S/C11H13NO2/c12-10(11(13)14)9-5-7-3-1-2-4-8(7)6-9/h1-4,9-10H,5-6,12H2,(H,13,14)/t10-/m0/s1

> <INCHI_KEY>
InChIKey=GUDHMDVRURNAHL-JTQLQIEISA-N

> <SMILES>
N[C@@H](C1CC2=CC=CC=C2C1)C(O)=O

> <JCHEM_ACCEPTOR_COUNT>
3

> <JCHEM_DONOR_COUNT>
2

> <JCHEM_ACIDIC_PKA>
2.4

> <JCHEM_BASIC_PKA>
9.56

> <JCHEM_PHYSIOLOGICAL_CHARGE>
0

> <ALOGPS_LOGP>
-1.3

> <JCHEM_LOGP>
-0.77

> <ALOGPS_LOGS>
-2

> <JCHEM_POLARIZABILITY>
20.4

> <JCHEM_POLAR_SURFACE_AREA>
63.32

> <JCHEM_REFRACTIVITY>
52.83

> <JCHEM_ROTATABLE_BOND_COUNT>
2

> <ALOGPS_SOLUBILITY>
1.90e+00 g/l __ 

$$$$
