
  Mrv0541 02231217302D          

 17 17  0  0  1  0            999 V2000
    0.1842    1.8695    0.0000 C   0  0  0  0  0  0  0  0  0  0  0  0
    0.7145    1.2375    0.0000 C   0  0  2  0  0  0  0  0  0  0  0  0
    1.4289    0.8250    0.0000 O   0  0  0  0  0  0  0  0  0  0  0  0
    1.4289    0.0000    0.0000 C   0  0  2  0  0  0  0  0  0  0  0  0
    2.1434   -0.4125    0.0000 C   0  0  0  0  0  0  0  0  0  0  0  0
    2.1434   -1.2375    0.0000 O   0  0  0  0  0  0  0  0  0  0  0  0
    0.7145   -0.4125    0.0000 C   0  0  1  0  0  0  0  0  0  0  0  0
    0.7145   -1.2375    0.0000 O   0  0  0  0  0  0  0  0  0  0  0  0
    0.0000    0.0000    0.0000 C   0  0  2  0  0  0  0  0  0  0  0  0
   -0.7145   -0.4125    0.0000 O   0  0  0  0  0  0  0  0  0  0  0  0
    0.0000    0.8250    0.0000 C   0  0  1  0  0  0  0  0  0  0  0  0
   -0.7145    1.2375    0.0000 O   0  0  0  0  0  0  0  0  0  0  0  0
    1.2448    1.8695    0.0000 O   0  0  0  0  0  0  0  0  0  0  0  0
    0.9626    2.6447    0.0000 P   0  0  0  0  0  0  0  0  0  0  0  0
    0.6804    3.4200    0.0000 O   0  0  0  0  0  0  0  0  0  0  0  0
    1.7379    2.9269    0.0000 O   0  0  0  0  0  0  0  0  0  0  0  0
    0.1874    2.3626    0.0000 O   0  0  0  0  0  0  0  0  0  0  0  0
  2  1  1  6  0  0  0
  2  3  1  0  0  0  0
  3  4  1  0  0  0  0
  4  5  1  6  0  0  0
  5  6  1  0  0  0  0
  4  7  1  0  0  0  0
  7  8  1  1  0  0  0
  7  9  1  0  0  0  0
  9 10  1  6  0  0  0
  9 11  1  0  0  0  0
  2 11  1  0  0  0  0
 11 12  1  1  0  0  0
  2 13  1  1  0  0  0
 13 14  1  0  0  0  0
 14 15  1  0  0  0  0
 14 16  1  0  0  0  0
 14 17  2  0  0  0  0
M  END
> <DRUGBANK_ID>
DB04195

> <DRUG_GROUPS>
experimental

> <GENERIC_NAME>
Heptulose-2-Phosphate

> <CHEMICAL_FORMULA>
C7H15O9P

> <MOLECULAR_WEIGHT>
274.1624

> <EXACT_MASS>
274.04536859

> <IUPAC_NAME>
{[(2R,3R,4S,5S,6R)-3,4,5-trihydroxy-6-(hydroxymethyl)-2-methyloxan-2-yl]oxy}phosphonic acid

> <IUPAC_TRADITIONAL_NAME>
[(2R,3R,4S,5S,6R)-3,4,5-trihydroxy-6-(hydroxymethyl)-2-methyloxan-2-yl]oxyphosphonic acid

> <INCHI_IDENTIFIER>
InChI=1S/C7H15O9P/c1-7(16-17(12,13)14)6(11)5(10)4(9)3(2-8)15-7/h3-6,8-11H,2H2,1H3,(H2,12,13,14)/t3-,4-,5+,6-,7-/m1/s1

> <INCHI_KEY>
InChIKey=QZBAZODTRUGOQS-XUUWZHRGSA-N

> <SMILES>
C[C@]1(OP(O)(O)=O)O[C@H](CO)[C@@H](O)[C@H](O)[C@H]1O

> <JCHEM_ACCEPTOR_COUNT>
8

> <JCHEM_DONOR_COUNT>
6

> <JCHEM_ACIDIC_PKA>
1.15

> <JCHEM_BASIC_PKA>
-3

> <JCHEM_PHYSIOLOGICAL_CHARGE>
-2

> <ALOGPS_LOGP>
-2.1

> <JCHEM_LOGP>
-2.8

> <ALOGPS_LOGS>
-0.94

> <JCHEM_POLARIZABILITY>
22.39

> <JCHEM_POLAR_SURFACE_AREA>
156.91

> <JCHEM_REFRACTIVITY>
51.82

> <JCHEM_ROTATABLE_BOND_COUNT>
3

> <ALOGPS_SOLUBILITY>
3.18e+01 g/l __ 

$$$$
