
  Mrv0541 02231217432D          

  7  7  0  0  1  0            999 V2000
    0.7145    2.0625    0.0000 N   0  0  0  0  0  0  0  0  0  0  0  0
    0.7145    1.2375    0.0000 C   0  0  1  0  0  0  0  0  0  0  0  0
    1.4289    0.8250    0.0000 C   0  0  0  0  0  0  0  0  0  0  0  0
    1.4289    0.0000    0.0000 C   0  0  0  0  0  0  0  0  0  0  0  0
    0.7145   -0.4125    0.0000 C   0  0  0  0  0  0  0  0  0  0  0  0
    0.0000    0.0000    0.0000 N   0  0  0  0  0  0  0  0  0  0  0  0
    0.0000    0.8250    0.0000 C   0  0  0  0  0  0  0  0  0  0  0  0
  2  1  1  1  0  0  0
  2  3  1  0  0  0  0
  3  4  1  0  0  0  0
  4  5  1  0  0  0  0
  5  6  2  0  0  0  0
  6  7  1  0  0  0  0
  2  7  1  0  0  0  0
M  END
> <DRUGBANK_ID>
DB04504

> <DRUG_GROUPS>
experimental

> <GENERIC_NAME>
(3s)-2,3,4,5-Tetrahydropyridin-3-Amine

> <CHEMICAL_FORMULA>
C5H10N2

> <MOLECULAR_WEIGHT>
98.1463

> <EXACT_MASS>
98.08439833

> <IUPAC_NAME>
(3S)-2,3,4,5-tetrahydropyridin-3-amine

> <IUPAC_TRADITIONAL_NAME>
(3S)-2,3,4,5-tetrahydropyridin-3-amine

> <INCHI_IDENTIFIER>
InChI=1S/C5H10N2/c6-5-2-1-3-7-4-5/h3,5H,1-2,4,6H2/t5-/m0/s1

> <INCHI_KEY>
InChIKey=SEECZTVWJNGUEJ-YFKPBYRVSA-N

> <SMILES>
N[C@H]1CCC=NC1

> <JCHEM_ACCEPTOR_COUNT>
2

> <JCHEM_DONOR_COUNT>
1

> <JCHEM_BASIC_PKA>
9.71

> <JCHEM_PHYSIOLOGICAL_CHARGE>
2

> <ALOGPS_LOGP>
-0.25

> <JCHEM_LOGP>
-0.66

> <ALOGPS_LOGS>
-0.82

> <JCHEM_POLARIZABILITY>
10.97

> <JCHEM_POLAR_SURFACE_AREA>
38.38

> <JCHEM_REFRACTIVITY>
29.19

> <JCHEM_ROTATABLE_BOND_COUNT>
0

> <ALOGPS_SOLUBILITY>
1.48e+01 g/l __ 

$$$$
