4468
  Mrv0541 02231217422D          

 29 31  0  0  0  0            999 V2000
   -2.0202    0.9957    0.0000 C   0  0  0  0  0  0  0  0  0  0  0  0
   -1.3058    0.5832    0.0000 C   0  0  0  0  0  0  0  0  0  0  0  0
   -0.5913    0.9957    0.0000 C   0  0  0  0  0  0  0  0  0  0  0  0
   -0.5913    1.8207    0.0000 C   0  0  0  0  0  0  0  0  0  0  0  0
    0.1232    2.2332    0.0000 C   0  0  0  0  0  0  0  0  0  0  0  0
    0.1232    3.0582    0.0000 C   0  0  0  0  0  0  0  0  0  0  0  0
   -0.5913    3.4707    0.0000 C   0  0  0  0  0  0  0  0  0  0  0  0
   -1.3058    3.0582    0.0000 C   0  0  0  0  0  0  0  0  0  0  0  0
   -1.3058    2.2332    0.0000 C   0  0  0  0  0  0  0  0  0  0  0  0
    0.1232    0.5832    0.0000 C   0  0  0  0  0  0  0  0  0  0  0  0
    0.8377    0.9957    0.0000 C   0  0  0  0  0  0  0  0  0  0  0  0
    1.5521    0.5832    0.0000 C   0  0  0  0  0  0  0  0  0  0  0  0
    2.2666    0.9957    0.0000 C   0  0  0  0  0  0  0  0  0  0  0  0
    2.2666    1.8207    0.0000 C   0  0  0  0  0  0  0  0  0  0  0  0
    2.9811    2.2332    0.0000 O   0  0  0  0  0  0  0  0  0  0  0  0
    1.5521    2.2332    0.0000 C   0  0  0  0  0  0  0  0  0  0  0  0
    0.8377    1.8207    0.0000 C   0  0  0  0  0  0  0  0  0  0  0  0
    0.1232   -0.2418    0.0000 C   0  0  0  0  0  0  0  0  0  0  0  0
   -0.5913   -0.6543    0.0000 C   0  0  0  0  0  0  0  0  0  0  0  0
   -0.5913   -1.4793    0.0000 C   0  0  0  0  0  0  0  0  0  0  0  0
    0.1232   -1.8918    0.0000 C   0  0  0  0  0  0  0  0  0  0  0  0
    0.1232   -2.7168    0.0000 O   0  0  0  0  0  0  0  0  0  0  0  0
   -0.5913   -3.1293    0.0000 C   0  0  0  0  0  0  0  0  0  0  0  0
   -0.5913   -3.9543    0.0000 C   0  0  0  0  0  0  0  0  0  0  0  0
   -1.3058   -4.3668    0.0000 N   0  0  0  0  0  0  0  0  0  0  0  0
   -2.0202   -3.9543    0.0000 C   0  0  0  0  0  0  0  0  0  0  0  0
   -1.3058   -5.1918    0.0000 C   0  0  0  0  0  0  0  0  0  0  0  0
    0.8377   -1.4793    0.0000 C   0  0  0  0  0  0  0  0  0  0  0  0
    0.8377   -0.6543    0.0000 C   0  0  0  0  0  0  0  0  0  0  0  0
  1  2  1  0  0  0  0
  2  3  1  0  0  0  0
  3  4  1  0  0  0  0
  4  5  2  0  0  0  0
  5  6  1  0  0  0  0
  6  7  2  0  0  0  0
  7  8  1  0  0  0  0
  8  9  2  0  0  0  0
  4  9  1  0  0  0  0
  3 10  2  0  0  0  0
 10 11  1  0  0  0  0
 11 12  2  0  0  0  0
 12 13  1  0  0  0  0
 13 14  2  0  0  0  0
 14 15  1  0  0  0  0
 14 16  1  0  0  0  0
 16 17  2  0  0  0  0
 11 17  1  0  0  0  0
 10 18  1  0  0  0  0
 18 19  2  0  0  0  0
 19 20  1  0  0  0  0
 20 21  2  0  0  0  0
 21 22  1  0  0  0  0
 22 23  1  0  0  0  0
 23 24  1  0  0  0  0
 24 25  1  0  0  0  0
 25 26  1  0  0  0  0
 25 27  1  0  0  0  0
 21 28  1  0  0  0  0
 28 29  2  0  0  0  0
 18 29  1  0  0  0  0
M  END
> <DRUGBANK_ID>
DB04468

> <DRUG_GROUPS>
investigational

> <GENERIC_NAME>
Afimoxifene

> <SYNONYMS>


> <BRANDS>


> <CHEMICAL_FORMULA>
C26H29NO2

> <MOLECULAR_WEIGHT>
387.514

> <EXACT_MASS>
387.219829177

> <IUPAC_NAME>
4-[(1E)-1-{4-[2-(dimethylamino)ethoxy]phenyl}-2-phenylbut-1-en-1-yl]phenol

> <IUPAC_TRADITIONAL_NAME>
4-[(1E)-1-{4-[2-(dimethylamino)ethoxy]phenyl}-2-phenylbut-1-en-1-yl]phenol

> <INCHI_IDENTIFIER>
InChI=1S/C26H29NO2/c1-4-25(20-8-6-5-7-9-20)26(21-10-14-23(28)15-11-21)22-12-16-24(17-13-22)29-19-18-27(2)3/h5-17,28H,4,18-19H2,1-3H3/b26-25+

> <INCHI_KEY>
InChIKey=TXUZVZSFRXZGTL-OCEACIFDSA-N

> <SMILES>
CC\C(=C(\C1=CC=C(O)C=C1)C1=CC=C(OCCN(C)C)C=C1)C1=CC=CC=C1

> <JCHEM_ACCEPTOR_COUNT>
3

> <JCHEM_DONOR_COUNT>
1

> <JCHEM_ACIDIC_PKA>
9.45

> <JCHEM_BASIC_PKA>
8.66

> <JCHEM_PHYSIOLOGICAL_CHARGE>
1

> <ALOGPS_LOGP>
5.44

> <JCHEM_LOGP>
5.69

> <ALOGPS_LOGS>
-5.1

> <JCHEM_POLARIZABILITY>
45.44

> <JCHEM_POLAR_SURFACE_AREA>
32.7

> <JCHEM_REFRACTIVITY>
130.41

> <JCHEM_ROTATABLE_BOND_COUNT>
8

> <ALOGPS_SOLUBILITY>
3.03e-03 g/l __ 

$$$$
