
  Mrv0541 02231217412D          

  8  7  0  0  0  0            999 V2000
    0.4125    2.1434    0.0000 C   0  0  0  0  0  0  0  0  0  0  0  0
    0.8250    1.4289    0.0000 N   0  3  0  0  0  0  0  0  0  0  0  0
    0.1105    1.0164    0.0000 C   0  0  0  0  0  0  0  0  0  0  0  0
    1.5395    1.8414    0.0000 C   0  0  0  0  0  0  0  0  0  0  0  0
    1.2375    0.7145    0.0000 C   0  0  0  0  0  0  0  0  0  0  0  0
    0.8250    0.0000    0.0000 C   0  0  0  0  0  0  0  0  0  0  0  0
    1.2375   -0.7145    0.0000 O   0  0  0  0  0  0  0  0  0  0  0  0
    0.0000    0.0000    0.0000 O   0  0  0  0  0  0  0  0  0  0  0  0
  1  2  1  0  0  0  0
  2  3  1  0  0  0  0
  2  4  1  0  0  0  0
  2  5  1  0  0  0  0
  5  6  1  0  0  0  0
  6  7  1  0  0  0  0
  6  8  2  0  0  0  0
M  END
> <DRUGBANK_ID>
DB04455

> <DRUG_GROUPS>
experimental

> <GENERIC_NAME>
Trimethyl Glycine

> <CHEMICAL_FORMULA>
C5H12NO2

> <MOLECULAR_WEIGHT>
118.1543

> <EXACT_MASS>
118.086803633

> <IUPAC_NAME>
(carboxymethyl)trimethylazanium

> <IUPAC_TRADITIONAL_NAME>
trimethyl glycine

> <INCHI_IDENTIFIER>
InChI=1S/C5H11NO2/c1-6(2,3)4-5(7)8/h4H2,1-3H3/p+1

> <INCHI_KEY>
InChIKey=KWIUHFFTVRNATP-UHFFFAOYSA-O

> <SMILES>
C[N+](C)(C)CC(O)=O

> <JCHEM_ACCEPTOR_COUNT>
2

> <JCHEM_DONOR_COUNT>
1

> <JCHEM_ACIDIC_PKA>
2.26

> <JCHEM_PHYSIOLOGICAL_CHARGE>
0

> <ALOGPS_LOGP>
-2.1

> <JCHEM_LOGP>
-4.5

> <ALOGPS_LOGS>
-1.9

> <JCHEM_POLARIZABILITY>
12.52

> <JCHEM_POLAR_SURFACE_AREA>
37.3

> <JCHEM_REFRACTIVITY>
41.99

> <JCHEM_ROTATABLE_BOND_COUNT>
2

> <ALOGPS_SOLUBILITY>
1.75e+00 g/l __ 

$$$$
