SMG
  Mrv0541 02231217432D          

 17 16  0  0  0  0            999 V2000
   -3.6435   -0.0156    0.0000 O   0  0  0  0  0  0  0  0  0  0  0  0
   -2.9290   -1.2531    0.0000 O   0  0  0  0  0  0  0  0  0  0  0  0
   -2.9290   -0.4281    0.0000 C   0  0  0  0  0  0  0  0  0  0  0  0
   -2.2145   -0.0156    0.0000 C   0  0  0  0  0  0  0  0  0  0  0  0
   -1.5000   -0.4281    0.0000 C   0  0  0  0  0  0  0  0  0  0  0  0
   -0.7856    0.8094    0.0000 O   0  0  0  0  0  0  0  0  0  0  0  0
   -0.7856   -0.0156    0.0000 C   0  0  0  0  0  0  0  0  0  0  0  0
   -0.0711   -0.4281    0.0000 N   0  0  0  0  0  0  0  0  0  0  0  0
    1.3578    1.2219    0.0000 O   0  0  0  0  0  0  0  0  0  0  0  0
   -0.0711    1.2219    0.0000 O   0  0  0  0  0  0  0  0  0  0  0  0
    0.6434    0.8094    0.0000 C   0  0  0  0  0  0  0  0  0  0  0  0
    0.6434   -0.0156    0.0000 C   0  0  1  0  0  0  0  0  0  0  0  0
    1.3578   -0.4281    0.0000 C   0  0  0  0  0  0  0  0  0  0  0  0
    2.0723   -0.0156    0.0000 C   0  0  0  0  0  0  0  0  0  0  0  0
    2.7868   -0.4281    0.0000 S   0  0  0  0  0  0  0  0  0  0  0  0
    3.5013   -0.0156    0.0000 C   0  0  0  0  0  0  0  0  0  0  0  0
    0.1377    0.2763    0.0000 H   0  0  0  0  0  0  0  0  0  0  0  0
  1  3  1  0  0  0  0
  2  3  2  0  0  0  0
  3  4  1  0  0  0  0
  4  5  1  0  0  0  0
  5  7  1  0  0  0  0
  6  7  2  0  0  0  0
  7  8  1  0  0  0  0
 12  8  1  1  0  0  0
  9 11  2  0  0  0  0
 10 11  1  0  0  0  0
 11 12  1  0  0  0  0
 12 13  1  0  0  0  0
 12 17  1  6  0  0  0
 13 14  1  0  0  0  0
 14 15  1  0  0  0  0
 15 16  1  0  0  0  0
M  END
> <DRUGBANK_ID>
DB04511

> <DRUG_GROUPS>
experimental

> <GENERIC_NAME>
N-Succinyl Methionine

> <CHEMICAL_FORMULA>
C9H15NO5S

> <MOLECULAR_WEIGHT>
249.284

> <EXACT_MASS>
249.067093285

> <IUPAC_NAME>
(2R)-2-(3-carboxypropanamido)-4-(methylsulfanyl)butanoic acid

> <IUPAC_TRADITIONAL_NAME>
N-succinyl methionine

> <INCHI_IDENTIFIER>
InChI=1S/C9H15NO5S/c1-16-5-4-6(9(14)15)10-7(11)2-3-8(12)13/h6H,2-5H2,1H3,(H,10,11)(H,12,13)(H,14,15)/t6-/m1/s1

> <INCHI_KEY>
InChIKey=CZFFMUMOBDIXJU-ZCFIWIBFSA-N

> <SMILES>
[H][C@](CCSC)(NC(=O)CCC(O)=O)C(O)=O

> <JCHEM_ACCEPTOR_COUNT>
5

> <JCHEM_DONOR_COUNT>
3

> <JCHEM_ACIDIC_PKA>
3.54

> <JCHEM_BASIC_PKA>
-1.5

> <JCHEM_PHYSIOLOGICAL_CHARGE>
-2

> <ALOGPS_LOGP>
-0.41

> <JCHEM_LOGP>
-0.28

> <ALOGPS_LOGS>
-2

> <JCHEM_POLARIZABILITY>
24.65

> <JCHEM_POLAR_SURFACE_AREA>
103.7

> <JCHEM_REFRACTIVITY>
57.92

> <JCHEM_ROTATABLE_BOND_COUNT>
8

> <ALOGPS_SOLUBILITY>
2.31e+00 g/l __ 

$$$$
