
  Mrv0541 02231218012D          

128140  0  0  1  0            999 V2000
    7.2117    0.3661    0.0000 Cl   0  0  0  0  0  0  0  0  0  0  0  0
   12.9275    0.3661    0.0000 Cl   0  0  0  0  0  0  0  0  0  0  0  0
    2.2972    7.5706    0.0000 Cl   0  0  0  0  0  0  0  0  0  0  0  0
    9.7534    3.3238    0.0000 O    0  0  0  0  0  0  0  0  0  0  0  0
    9.5053    1.9165    0.0000 O    0  0  0  0  0  0  0  0  0  0  0  0
    8.3766    5.0176    0.0000 O    0  0  0  0  0  0  0  0  0  0  0  0
   11.4124    0.8548    0.0000 O    0  0  0  0  0  0  0  0  0  0  0  0
   10.5659    3.1805    0.0000 O    0  0  0  0  0  0  0  0  0  0  0  0
   10.0696    0.3661    0.0000 O    0  0  0  0  0  0  0  0  0  0  0  0
   12.1909    2.8941    0.0000 O    0  0  0  0  0  0  0  0  0  0  0  0
    3.8191   -1.8955    0.0000 O    0  0  0  0  0  0  0  0  0  0  0  0
    5.1993   -1.5256    0.0000 O    0  0  0  0  0  0  0  0  0  0  0  0
    2.0117   -0.6715    0.0000 O    0  0  0  0  0  0  0  0  0  0  0  0
   13.2855    1.9755    0.0000 O    0  0  0  0  0  0  0  0  0  0  0  0
    8.6407   -0.4590    0.0000 O    0  0  0  0  0  0  0  0  0  0  0  0
   11.4986   -0.4590    0.0000 O    0  0  0  0  0  0  0  0  0  0  0  0
    4.2432   -3.3465    0.0000 O    0  0  0  0  0  0  0  0  0  0  0  0
    7.9239   -2.5176    0.0000 O    0  0  0  0  0  0  0  0  0  0  0  0
    9.3541   -4.1715    0.0000 O    0  0  0  0  0  0  0  0  0  0  0  0
   11.4986   -2.1090    0.0000 O    0  0  0  0  0  0  0  0  0  0  0  0
    7.1236   -5.0779    0.0000 O    0  0  0  0  0  0  0  0  0  0  0  0
    7.1285   -3.8140    0.0000 O    0  0  0  0  0  0  0  0  0  0  0  0
    7.9262   -6.6466    0.0000 O    0  0  0  0  0  0  0  0  0  0  0  0
   14.9399   -1.5256    0.0000 O    0  0  0  0  0  0  0  0  0  0  0  0
    7.2117   -7.0591    0.0000 O    0  0  0  0  0  0  0  0  0  0  0  0
    4.3537   -7.0591    0.0000 O    0  0  0  0  0  0  0  0  0  0  0  0
   13.6421   -4.1715    0.0000 O    0  0  0  0  0  0  0  0  0  0  0  0
   11.0463   -4.5133    0.0000 O    0  0  0  0  0  0  0  0  0  0  0  0
   14.7836   -4.5279    0.0000 O    0  0  0  0  0  0  0  0  0  0  0  0
    7.4964    4.1407    0.0000 N    0  0  0  0  0  0  0  0  0  0  0  0
    2.8086    0.2817    0.0000 N    0  0  0  0  0  0  0  0  0  0  0  0
    6.4972   -3.3465    0.0000 N    0  0  0  0  0  0  0  0  0  0  0  0
    5.0683   -4.1715    0.0000 N    0  0  0  0  0  0  0  0  0  0  0  0
    8.6407   -2.9340    0.0000 N    0  0  0  0  0  0  0  0  0  0  0  0
   10.7841   -3.3465    0.0000 N    0  0  0  0  0  0  0  0  0  0  0  0
   12.9276   -2.9340    0.0000 N    0  0  0  0  0  0  0  0  0  0  0  0
   15.1534   -3.1475    0.0000 N    0  0  0  0  0  0  0  0  0  0  0  0
   12.0568   -5.5237    0.0000 N    0  0  0  0  0  0  0  0  0  0  0  0
   16.3774   -4.9549    0.0000 N    0  0  0  0  0  0  0  0  0  0  0  0
    8.1284    3.6104    0.0000 C    0  0  2  0  0  0  0  0  0  0  0  0
    8.6587    4.2423    0.0000 C    0  0  2  0  0  0  0  0  0  0  0  0
    8.4106    2.8351    0.0000 C    0  0  0  0  0  0  0  0  0  0  0  0
    9.2231    2.6918    0.0000 C    0  0  1  0  0  0  0  0  0  0  0  0
    9.4712    4.0991    0.0000 C    0  0  2  0  0  0  0  0  0  0  0  0
    7.3532    3.3282    0.0000 C    0  0  0  0  0  0  0  0  0  0  0  0
   10.3178    1.7733    0.0000 C    0  0  2  0  0  0  0  0  0  0  0  0
   10.8481    2.4053    0.0000 C    0  0  2  0  0  0  0  0  0  0  0  0
   10.5999    0.9980    0.0000 C    0  0  1  0  0  0  0  0  0  0  0  0
   10.0015    4.7311    0.0000 C    0  0  0  0  0  0  0  0  0  0  0  0
   11.6606    2.2620    0.0000 C    0  0  1  0  0  0  0  0  0  0  0  0
   11.9427    1.4868    0.0000 C    0  0  1  0  0  0  0  0  0  0  0  0
    6.7212    3.8584    0.0000 C    0  0  0  0  0  0  0  0  0  0  0  0
    3.3920   -0.3017    0.0000 C    0  0  2  0  0  0  0  0  0  0  0  0
    2.8086   -0.8850    0.0000 C    0  0  2  0  0  0  0  0  0  0  0  0
   12.7552    1.3435    0.0000 C    0  0  0  0  0  0  0  0  0  0  0  0
    6.0892    4.3888    0.0000 C    0  0  0  0  0  0  0  0  0  0  0  0
    4.1889   -0.5152    0.0000 C    0  0  0  0  0  0  0  0  0  0  0  0
    3.0221   -1.6820    0.0000 C    0  0  2  0  0  0  0  0  0  0  0  0
    4.4025   -1.3120    0.0000 C    0  0  1  0  0  0  0  0  0  0  0  0
    3.6056    0.4953    0.0000 C    0  0  0  0  0  0  0  0  0  0  0  0
   10.0697   -0.4590    0.0000 C    0  0  0  0  0  0  0  0  0  0  0  0
    5.3139    4.1066    0.0000 C    0  0  0  0  0  0  0  0  0  0  0  0
    6.2324    5.2012    0.0000 C    0  0  0  0  0  0  0  0  0  0  0  0
    2.4388   -2.2653    0.0000 C    0  0  0  0  0  0  0  0  0  0  0  0
    5.7827   -2.1090    0.0000 C    0  0  1  0  0  0  0  0  0  0  0  0
    5.7827   -2.9340    0.0000 C    0  0  1  0  0  0  0  0  0  0  0  0
    4.6819    4.6369    0.0000 C    0  0  0  0  0  0  0  0  0  0  0  0
    5.6005    5.7316    0.0000 C    0  0  0  0  0  0  0  0  0  0  0  0
    9.3551   -0.8715    0.0000 C    0  0  0  0  0  0  0  0  0  0  0  0
   10.7841   -0.8715    0.0000 C    0  0  0  0  0  0  0  0  0  0  0  0
    4.8252    5.4494    0.0000 C    0  0  0  0  0  0  0  0  0  0  0  0
    6.4972   -1.6965    0.0000 C    0  0  0  0  0  0  0  0  0  0  0  0
    9.3551   -1.6965    0.0000 C    0  0  0  0  0  0  0  0  0  0  0  0
   10.0697   -2.1090    0.0000 C    0  0  0  0  0  0  0  0  0  0  0  0
   10.7841   -1.6965    0.0000 C    0  0  0  0  0  0  0  0  0  0  0  0
    5.0683   -3.3465    0.0000 C    0  0  0  0  0  0  0  0  0  0  0  0
   10.0697   -2.9340    0.0000 C    0  0  2  0  0  0  0  0  0  0  0  0
    4.1932    5.9797    0.0000 C    0  0  0  0  0  0  0  0  0  0  0  0
    6.4972   -0.8715    0.0000 C    0  0  0  0  0  0  0  0  0  0  0  0
    7.2117   -2.1090    0.0000 C    0  0  0  0  0  0  0  0  0  0  0  0
    7.9262   -0.8715    0.0000 C    0  0  0  0  0  0  0  0  0  0  0  0
    7.2117   -0.4590    0.0000 C    0  0  0  0  0  0  0  0  0  0  0  0
    7.9262   -1.6965    0.0000 C    0  0  0  0  0  0  0  0  0  0  0  0
    7.2117   -2.9340    0.0000 C    0  0  0  0  0  0  0  0  0  0  0  0
    7.9262   -3.3465    0.0000 C    0  0  1  0  0  0  0  0  0  0  0  0
    9.3551   -3.3465    0.0000 C    0  0  0  0  0  0  0  0  0  0  0  0
    5.7827   -4.5840    0.0000 C    0  0  1  0  0  0  0  0  0  0  0  0
    3.4179    5.6976    0.0000 C    0  0  0  0  0  0  0  0  0  0  0  0
    4.3365    6.7922    0.0000 C    0  0  0  0  0  0  0  0  0  0  0  0
   12.2131   -0.8715    0.0000 C    0  0  0  0  0  0  0  0  0  0  0  0
    7.9262   -4.1715    0.0000 C    0  0  0  0  0  0  0  0  0  0  0  0
    5.7827   -5.4091    0.0000 C    0  0  0  0  0  0  0  0  0  0  0  0
   11.4986   -2.9340    0.0000 C    0  0  0  0  0  0  0  0  0  0  0  0
    7.2117   -4.5840    0.0000 C    0  0  0  0  0  0  0  0  0  0  0  0
    6.4972   -5.8216    0.0000 C    0  0  0  0  0  0  0  0  0  0  0  0
    2.7859    6.2278    0.0000 C    0  0  0  0  0  0  0  0  0  0  0  0
    3.7044    7.3225    0.0000 C    0  0  0  0  0  0  0  0  0  0  0  0
    7.2117   -5.4091    0.0000 C    0  0  0  0  0  0  0  0  0  0  0  0
   12.2131   -3.3465    0.0000 C    0  0  2  0  0  0  0  0  0  0  0  0
   12.9276   -0.4590    0.0000 C    0  0  0  0  0  0  0  0  0  0  0  0
   12.2131   -1.6965    0.0000 C    0  0  0  0  0  0  0  0  0  0  0  0
    8.6407   -4.5840    0.0000 C    0  0  0  0  0  0  0  0  0  0  0  0
    6.5958   -4.4440    0.0000 C    0  0  0  0  0  0  0  0  0  0  0  0
    2.9291    7.0403    0.0000 C    0  0  0  0  0  0  0  0  0  0  0  0
    5.0683   -5.8216    0.0000 C    0  0  0  0  0  0  0  0  0  0  0  0
   13.6421   -1.6965    0.0000 C    0  0  0  0  0  0  0  0  0  0  0  0
    7.9262   -5.8216    0.0000 C    0  0  0  0  0  0  0  0  0  0  0  0
    8.6407   -5.4091    0.0000 C    0  0  0  0  0  0  0  0  0  0  0  0
   13.6421   -0.8715    0.0000 C    0  0  0  0  0  0  0  0  0  0  0  0
   12.9276   -2.1090    0.0000 C    0  0  0  0  0  0  0  0  0  0  0  0
   14.3566   -2.1090    0.0000 C    0  0  2  0  0  0  0  0  0  0  0  0
    6.4972   -6.6466    0.0000 C    0  0  0  0  0  0  0  0  0  0  0  0
   14.3566   -2.9340    0.0000 C    0  0  2  0  0  0  0  0  0  0  0  0
   12.4267   -4.1435    0.0000 C    0  0  0  0  0  0  0  0  0  0  0  0
    5.0683   -6.6466    0.0000 C    0  0  0  0  0  0  0  0  0  0  0  0
   13.6421   -3.3465    0.0000 C    0  0  0  0  0  0  0  0  0  0  0  0
    5.7827   -7.0591    0.0000 C    0  0  0  0  0  0  0  0  0  0  0  0
   11.8432   -4.7269    0.0000 C    0  0  0  0  0  0  0  0  0  0  0  0
   15.3670   -3.9445    0.0000 C    0  0  0  0  0  0  0  0  0  0  0  0
   16.1639   -4.1580    0.0000 C    0  0  1  0  0  0  0  0  0  0  0  0
   16.7473   -3.5746    0.0000 C    0  0  0  0  0  0  0  0  0  0  0  0
   17.5442   -3.7882    0.0000 C    0  0  0  0  0  0  0  0  0  0  0  0
   18.1275   -3.2048    0.0000 C    0  0  0  0  0  0  0  0  0  0  0  0
   17.7577   -4.5850    0.0000 C    0  0  0  0  0  0  0  0  0  0  0  0
   17.1743   -5.1684    0.0000 C    0  0  0  0  0  0  0  0  0  0  0  0
    5.1754   -2.5834    0.0000 H    0  0  0  0  0  0  0  0  0  0  0  0
   10.0697   -3.6353    0.0000 H    0  0  0  0  0  0  0  0  0  0  0  0
    8.4743   -3.7840    0.0000 H    0  0  0  0  0  0  0  0  0  0  0  0
  1 82  1  0  0  0  0
  2100  1  0  0  0  0
  3104  1  0  0  0  0
  4 43  1  0  0  0  0
  4 44  1  0  0  0  0
 43  5  1  1  0  0  0
 46  5  1  6  0  0  0
 41  6  1  1  0  0  0
  7 48  1  0  0  0  0
  7 51  1  0  0  0  0
 47  8  1  1  0  0  0
 48  9  1  1  0  0  0
  9 61  1  0  0  0  0
 50 10  1  6  0  0  0
 11 58  1  0  0  0  0
 11 59  1  0  0  0  0
 59 12  1  6  0  0  0
 65 12  1  6  0  0  0
 54 13  1  6  0  0  0
 14 55  1  0  0  0  0
 15 69  1  0  0  0  0
 15 81  1  0  0  0  0
 16 70  1  0  0  0  0
 16 90  1  0  0  0  0
 17 76  2  0  0  0  0
 18 84  2  0  0  0  0
 19 86  2  0  0  0  0
 20 93  2  0  0  0  0
 21103  1  0  0  0  0
 22103  2  0  0  0  0
 23107  1  0  0  0  0
111 24  1  1  0  0  0
 25112  1  0  0  0  0
 26115  1  0  0  0  0
 27116  2  0  0  0  0
 28118  2  0  0  0  0
 29119  2  0  0  0  0
 40 30  1  6  0  0  0
 30 52  1  0  0  0  0
 53 31  1  1  0  0  0
 32 66  1  0  0  0  0
 32 84  1  0  0  0  0
 33 76  1  0  0  0  0
 33 87  1  0  0  0  0
 34 85  1  0  0  0  0
 34 86  1  0  0  0  0
 35 77  1  0  0  0  0
 35 93  1  0  0  0  0
 36 99  1  0  0  0  0
 36116  1  0  0  0  0
113 37  1  1  0  0  0
 37119  1  0  0  0  0
 38118  1  0  0  0  0
120 39  1  1  0  0  0
 39125  1  0  0  0  0
 40 41  1  0  0  0  0
 40 42  1  0  0  0  0
 40 45  1  0  0  0  0
 41 44  1  0  0  0  0
 42 43  1  0  0  0  0
 44 49  1  6  0  0  0
 46 47  1  0  0  0  0
 46 48  1  0  0  0  0
 47 50  1  0  0  0  0
 50 51  1  0  0  0  0
 51 55  1  1  0  0  0
 52 56  1  0  0  0  0
 53 54  1  0  0  0  0
 53 57  1  0  0  0  0
 53 60  1  0  0  0  0
 54 58  1  0  0  0  0
 56 62  2  0  0  0  0
 56 63  1  0  0  0  0
 57 59  1  0  0  0  0
 58 64  1  1  0  0  0
 61 69  1  0  0  0  0
 61 70  2  0  0  0  0
 62 67  1  0  0  0  0
 63 68  2  0  0  0  0
 65 66  1  0  0  0  0
 65 72  1  0  0  0  0
 66 76  1  0  0  0  0
 66126  1  1  0  0  0
 67 71  2  0  0  0  0
 68 71  1  0  0  0  0
 69 73  2  0  0  0  0
 70 75  1  0  0  0  0
 71 78  1  0  0  0  0
 72 79  2  0  0  0  0
 72 80  1  0  0  0  0
 73 74  1  0  0  0  0
 74 75  2  0  0  0  0
 74 77  1  0  0  0  0
 77 86  1  0  0  0  0
 77127  1  6  0  0  0
 78 88  2  0  0  0  0
 78 89  1  0  0  0  0
 79 82  1  0  0  0  0
 80 83  2  0  0  0  0
 81 82  2  0  0  0  0
 81 83  1  0  0  0  0
 84 85  1  0  0  0  0
 85 91  1  0  0  0  0
 85128  1  1  0  0  0
 87 92  1  0  0  0  0
 87103  1  6  0  0  0
 88 96  1  0  0  0  0
 89 97  2  0  0  0  0
 90100  2  0  0  0  0
 90101  1  0  0  0  0
 91 94  2  0  0  0  0
 91102  1  0  0  0  0
 92 95  2  0  0  0  0
 92105  1  0  0  0  0
 93 99  1  0  0  0  0
 94 98  1  0  0  0  0
 95 98  1  0  0  0  0
 95112  1  0  0  0  0
 96104  2  0  0  0  0
 97104  1  0  0  0  0
 98107  2  0  0  0  0
 99114  1  1  0  0  0
100109  1  0  0  0  0
101110  2  0  0  0  0
102108  2  0  0  0  0
105115  2  0  0  0  0
106109  2  0  0  0  0
106110  1  0  0  0  0
106111  1  0  0  0  0
107108  1  0  0  0  0
111113  1  0  0  0  0
112117  2  0  0  0  0
113116  1  0  0  0  0
114118  1  0  0  0  0
115117  1  0  0  0  0
119120  1  0  0  0  0
120121  1  0  0  0  0
121122  1  0  0  0  0
122123  1  0  0  0  0
122124  1  0  0  0  0
M  END
> <DRUGBANK_ID>
DB04911

> <DRUG_GROUPS>
investigational

> <GENERIC_NAME>
Oritavancin

> <SYNONYMS>


> <CHEMICAL_FORMULA>
C86H97Cl3N10O26

> <MOLECULAR_WEIGHT>
1793.101

> <EXACT_MASS>
1790.564106447

> <IUPAC_NAME>
(1S,2R,18R,19R,22S,25R,28R,40S)-2-{[(2R,4S,5R,6S)-4-amino-5-hydroxy-4,6-dimethyloxan-2-yl]oxy}-22-(carbamoylmethyl)-5,15-dichloro-48-{[(2S,3R,4S,5S,6R)-3-{[(2S,4S,5R,6S)-4-({[4-(4-chlorophenyl)phenyl]methyl}amino)-5-hydroxy-4,6-dimethyloxan-2-yl]oxy}-4,5-dihydroxy-6-(hydroxymethyl)oxan-2-yl]oxy}-18,32,35,37-tetrahydroxy-19-[(2R)-4-methyl-2-(methylamino)pentanamido]-20,23,26,42,44-pentaoxo-7,13-dioxa-21,24,27,41,43-pentaazaoctacyclo[26.14.2.2^{3,6}.2^{14,17}.1^{8,12}.1^{29,33}.0^{10,25}.0^{34,39}]pentaconta-3,5,8(48),9,11,14,16,29(45),30,32,34(39),35,37,46,49-pentadecaene-40-carboxylic acid

> <IUPAC_TRADITIONAL_NAME>
(1S,2R,18R,19R,22S,25R,28R,40S)-2-{[(2R,4S,5R,6S)-4-amino-5-hydroxy-4,6-dimethyloxan-2-yl]oxy}-22-(carbamoylmethyl)-5,15-dichloro-48-{[(2S,3R,4S,5S,6R)-3-{[(2S,4S,5R,6S)-4-({[4-(4-chlorophenyl)phenyl]methyl}amino)-5-hydroxy-4,6-dimethyloxan-2-yl]oxy}-4,5-dihydroxy-6-(hydroxymethyl)oxan-2-yl]oxy}-18,32,35,37-tetrahydroxy-19-[(2R)-4-methyl-2-(methylamino)pentanamido]-20,23,26,42,44-pentaoxo-7,13-dioxa-21,24,27,41,43-pentaazaoctacyclo[26.14.2.2^{3,6}.2^{14,17}.1^{8,12}.1^{29,33}.0^{10,25}.0^{34,39}]pentaconta-3,5,8(48),9,11,14,16,29(45),30,32,34(39),35,37,46,49-pentadecaene-40-carboxylic acid

> <INCHI_IDENTIFIER>
InChI=1S/C86H97Cl3N10O26/c1-35(2)22-51(92-7)77(110)98-67-69(105)42-15-20-55(49(88)24-42)120-57-26-44-27-58(73(57)125-84-74(71(107)70(106)59(34-100)122-84)124-62-32-86(6,76(109)37(4)119-62)93-33-38-8-10-39(11-9-38)40-12-17-45(87)18-13-40)121-56-21-16-43(25-50(56)89)72(123-61-31-85(5,91)75(108)36(3)118-61)68-82(115)97-66(83(116)117)48-28-46(101)29-54(103)63(48)47-23-41(14-19-53(47)102)64(79(112)99-68)96-80(113)65(44)95-78(111)52(30-60(90)104)94-81(67)114/h8-21,23-29,35-37,51-52,59,61-62,64-72,74-76,84,92-93,100-103,105-109H,22,30-34,91H2,1-7H3,(H2,90,104)(H,94,114)(H,95,111)(H,96,113)(H,97,115)(H,98,110)(H,99,112)(H,116,117)/t36-,37-,51+,52-,59+,61-,62-,64+,65+,66-,67+,68-,69+,70+,71-,72+,74+,75-,76-,84-,85-,86-/m0/s1

> <INCHI_KEY>
InChIKey=VHFGEBVPHAGQPI-LXKZPTCJSA-N

> <SMILES>
[H][C@]12NC(=O)[C@]([H])(NC(=O)[C@]3([H])NC(=O)[C@H](CC(N)=O)NC(=O)[C@H](NC(=O)[C@@H](CC(C)C)NC)[C@H](O)C4=CC(Cl)=C(OC5=C(O[C@@H]6O[C@H](CO)[C@@H](O)[C@H](O)[C@H]6O[C@H]6C[C@](C)(NCC7=CC=C(C=C7)C7=CC=C(Cl)C=C7)[C@@H](O)[C@H](C)O6)C(OC6=C(Cl)C=C(C=C6)[C@H]1O[C@H]1C[C@](C)(N)[C@@H](O)[C@H](C)O1)=CC3=C5)C=C4)C1=CC(=C(O)C=C1)C1=C(C=C(O)C=C1O)[C@H](NC2=O)C(O)=O

> <JCHEM_ACCEPTOR_COUNT>
27

> <JCHEM_DONOR_COUNT>
20

> <JCHEM_ACIDIC_PKA>
2.98

> <JCHEM_BASIC_PKA>
10.08

> <JCHEM_PHYSIOLOGICAL_CHARGE>
2

> <ALOGPS_LOGP>
1.92

> <JCHEM_LOGP>
-0.094

> <ALOGPS_LOGS>
-4.5

> <JCHEM_POLARIZABILITY>
176.06

> <JCHEM_POLAR_SURFACE_AREA>
560.98

> <JCHEM_REFRACTIVITY>
441.59

> <JCHEM_ROTATABLE_BOND_COUNT>
19

> <ALOGPS_SOLUBILITY>
5.88e-02 g/l __ 

$$$$
