4837
  Mrv0541 02231217572D          

 20 21  0  0  1  0            999 V2000
    1.6500   -0.8250    0.0000 Cl   0  0  0  0  0  0  0  0  0  0  0  0
    2.2540    0.0000    0.0000 O    0  0  0  0  0  0  0  0  0  0  0  0
    5.1415    0.7144    0.0000 N    0  0  0  0  0  0  0  0  0  0  0  0
    3.0790    0.0000    0.0000 C    0  0  0  0  0  0  0  0  0  0  0  0
    3.9040    0.0000    0.0000 C    0  0  0  0  0  0  0  0  0  0  0  0
    4.3165    0.7144    0.0000 C    0  0  0  0  0  0  0  0  0  0  0  0
    3.0790   -0.8250    0.0000 C    0  0  0  0  0  0  0  0  0  0  0  0
    3.0790    0.8250    0.0000 C    0  0  0  0  0  0  0  0  0  0  0  0
    2.3644   -1.2375    0.0000 C    0  0  0  0  0  0  0  0  0  0  0  0
    3.7934   -1.2375    0.0000 C    0  0  0  0  0  0  0  0  0  0  0  0
    2.3644    1.2375    0.0000 C    0  0  0  0  0  0  0  0  0  0  0  0
    3.7934    1.2375    0.0000 C    0  0  0  0  0  0  0  0  0  0  0  0
    5.5540    1.4290    0.0000 C    0  0  0  0  0  0  0  0  0  0  0  0
    5.5540    0.0000    0.0000 C    0  0  0  0  0  0  0  0  0  0  0  0
    2.3644   -2.0625    0.0000 C    0  0  0  0  0  0  0  0  0  0  0  0
    3.7934   -2.0625    0.0000 C    0  0  0  0  0  0  0  0  0  0  0  0
    2.3644    2.0625    0.0000 C    0  0  0  0  0  0  0  0  0  0  0  0
    3.7934    2.0625    0.0000 C    0  0  0  0  0  0  0  0  0  0  0  0
    3.0790   -2.4750    0.0000 C    0  0  0  0  0  0  0  0  0  0  0  0
    3.0790    2.4750    0.0000 C    0  0  0  0  0  0  0  0  0  0  0  0
  1  9  1  0  0  0  0
  2  4  1  0  0  0  0
  3  6  1  0  0  0  0
  3 13  1  0  0  0  0
  3 14  1  0  0  0  0
  4  5  1  0  0  0  0
  4  7  1  0  0  0  0
  4  8  1  0  0  0  0
  5  6  1  0  0  0  0
  7  9  1  0  0  0  0
  7 10  2  0  0  0  0
  8 11  2  0  0  0  0
  8 12  1  0  0  0  0
  9 15  2  0  0  0  0
 10 16  1  0  0  0  0
 11 17  1  0  0  0  0
 12 18  2  0  0  0  0
 15 19  1  0  0  0  0
 16 19  2  0  0  0  0
 17 20  2  0  0  0  0
 18 20  1  0  0  0  0
M  END
> <DRUGBANK_ID>
DB04837

> <DRUG_GROUPS>
approved

> <GENERIC_NAME>
Clofedanol

> <SYNONYMS>
Chlophedianol; Clofedanolum; Clofedianolo

> <SALTS>
Clofedanol hydrochloride

> <BRANDS>
Antitussin; Ulone

> <CHEMICAL_FORMULA>
C17H20ClNO

> <MOLECULAR_WEIGHT>
289.8

> <EXACT_MASS>
289.123341974

> <IUPAC_NAME>
1-(2-chlorophenyl)-3-(dimethylamino)-1-phenylpropan-1-ol

> <IUPAC_TRADITIONAL_NAME>
chlophedianol

> <INCHI_IDENTIFIER>
InChI=1S/C17H20ClNO/c1-19(2)13-12-17(20,14-8-4-3-5-9-14)15-10-6-7-11-16(15)18/h3-11,20H,12-13H2,1-2H3

> <INCHI_KEY>
InChIKey=WRCHFMBCVFFYEQ-UHFFFAOYSA-N

> <SMILES>
CN(C)CCC(O)(C1=CC=CC=C1)C1=CC=CC=C1Cl

> <JCHEM_ACCEPTOR_COUNT>
2

> <JCHEM_DONOR_COUNT>
1

> <JCHEM_ACIDIC_PKA>
13.18

> <JCHEM_BASIC_PKA>
8.87

> <JCHEM_PHYSIOLOGICAL_CHARGE>
1

> <ALOGPS_LOGP>
3.51

> <JCHEM_LOGP>
3.46

> <ALOGPS_LOGS>
-3.7

> <JCHEM_POLARIZABILITY>
31.25

> <JCHEM_POLAR_SURFACE_AREA>
23.47

> <JCHEM_REFRACTIVITY>
84.94

> <JCHEM_ROTATABLE_BOND_COUNT>
5

> <ALOGPS_SOLUBILITY>
6.21e-02 g/l __ 

$$$$
