
  Mrv0541 02231217292D          

 54 53  0  0  1  0            999 V2000
   20.8461   12.8605    0.0000 C   0  0  0  0  0  0  0  0  0  0  0  0
   21.5605   13.2730    0.0000 C   0  0  0  0  0  0  0  0  0  0  0  0
   22.2750   12.8605    0.0000 C   0  0  0  0  0  0  0  0  0  0  0  0
   22.9895   13.2730    0.0000 C   0  0  0  0  0  0  0  0  0  0  0  0
   23.7039   12.8605    0.0000 C   0  0  0  0  0  0  0  0  0  0  0  0
   24.4184   13.2730    0.0000 C   0  0  0  0  0  0  0  0  0  0  0  0
   25.1329   12.8605    0.0000 C   0  0  0  0  0  0  0  0  0  0  0  0
   25.8474   13.2730    0.0000 C   0  0  0  0  0  0  0  0  0  0  0  0
   26.5618   12.8605    0.0000 C   0  0  0  0  0  0  0  0  0  0  0  0
   27.2763   13.2730    0.0000 C   0  0  0  0  0  0  0  0  0  0  0  0
   27.9908   12.8605    0.0000 C   0  0  0  0  0  0  0  0  0  0  0  0
   28.7052   13.2730    0.0000 C   0  0  0  0  0  0  0  0  0  0  0  0
   29.4197   12.8605    0.0000 C   0  0  0  0  0  0  0  0  0  0  0  0
   30.1342   13.2730    0.0000 C   0  0  0  0  0  0  0  0  0  0  0  0
   30.8487   12.8605    0.0000 C   0  0  0  0  0  0  0  0  0  0  0  0
   31.5631   13.2730    0.0000 C   0  0  0  0  0  0  0  0  0  0  0  0
   32.2776   12.8605    0.0000 C   0  0  0  0  0  0  0  0  0  0  0  0
   32.9921   13.2730    0.0000 C   0  0  0  0  0  0  0  0  0  0  0  0
   32.9921   14.0980    0.0000 O   0  0  0  0  0  0  0  0  0  0  0  0
   33.7065   12.8605    0.0000 O   0  0  0  0  0  0  0  0  0  0  0  0
   34.4210   13.2730    0.0000 C   0  0  0  0  0  0  0  0  0  0  0  0
   35.1355   12.8605    0.0000 C   0  0  1  0  0  0  0  0  0  0  0  0
   35.1355   12.0355    0.0000 C   0  0  0  0  0  0  0  0  0  0  0  0
   34.4210   11.6230    0.0000 O   0  0  0  0  0  0  0  0  0  0  0  0
   34.4210   10.7980    0.0000 P   0  0  1  0  0  0  0  0  0  0  0  0
   35.2460   10.7980    0.0000 O   0  0  0  0  0  0  0  0  0  0  0  0
   33.5960   10.7980    0.0000 O   0  0  0  0  0  0  0  0  0  0  0  0
   34.4210    9.9730    0.0000 O   0  0  0  0  0  0  0  0  0  0  0  0
   33.7065    9.5605    0.0000 C   0  0  0  0  0  0  0  0  0  0  0  0
   33.7065    8.7355    0.0000 C   0  0  0  0  0  0  0  0  0  0  0  0
   32.9921    8.3230    0.0000 N   0  3  0  0  0  0  0  0  0  0  0  0
   32.5796    9.0374    0.0000 C   0  0  0  0  0  0  0  0  0  0  0  0
   33.4046    7.6085    0.0000 C   0  0  0  0  0  0  0  0  0  0  0  0
   32.2776    7.9105    0.0000 C   0  0  0  0  0  0  0  0  0  0  0  0
   35.8499   13.2730    0.0000 O   0  0  0  0  0  0  0  0  0  0  0  0
   36.5644   12.8605    0.0000 C   0  0  0  0  0  0  0  0  0  0  0  0
   36.5644   12.0355    0.0000 O   0  0  0  0  0  0  0  0  0  0  0  0
   37.2789   13.2730    0.0000 C   0  0  0  0  0  0  0  0  0  0  0  0
   37.9934   12.8605    0.0000 C   0  0  0  0  0  0  0  0  0  0  0  0
   38.7078   13.2730    0.0000 C   0  0  0  0  0  0  0  0  0  0  0  0
   39.4223   12.8605    0.0000 C   0  0  0  0  0  0  0  0  0  0  0  0
   40.1368   13.2730    0.0000 C   0  0  0  0  0  0  0  0  0  0  0  0
   40.8512   12.8605    0.0000 C   0  0  0  0  0  0  0  0  0  0  0  0
   41.5657   13.2730    0.0000 C   0  0  0  0  0  0  0  0  0  0  0  0
   42.2802   12.8605    0.0000 C   0  0  0  0  0  0  0  0  0  0  0  0
   42.9947   13.2730    0.0000 C   0  0  0  0  0  0  0  0  0  0  0  0
   43.7091   12.8605    0.0000 C   0  0  0  0  0  0  0  0  0  0  0  0
   44.4236   13.2730    0.0000 C   0  0  0  0  0  0  0  0  0  0  0  0
   45.1381   12.8605    0.0000 C   0  0  0  0  0  0  0  0  0  0  0  0
   45.8525   13.2730    0.0000 C   0  0  0  0  0  0  0  0  0  0  0  0
   46.5670   12.8605    0.0000 C   0  0  0  0  0  0  0  0  0  0  0  0
   47.2815   13.2730    0.0000 C   0  0  0  0  0  0  0  0  0  0  0  0
   47.9960   12.8605    0.0000 C   0  0  0  0  0  0  0  0  0  0  0  0
   48.7104   13.2730    0.0000 C   0  0  0  0  0  0  0  0  0  0  0  0
  1  2  1  0  0  0  0
  2  3  1  0  0  0  0
  3  4  1  0  0  0  0
  4  5  1  0  0  0  0
  5  6  1  0  0  0  0
  6  7  1  0  0  0  0
  7  8  1  0  0  0  0
  8  9  1  0  0  0  0
  9 10  1  0  0  0  0
 10 11  1  0  0  0  0
 11 12  1  0  0  0  0
 12 13  1  0  0  0  0
 13 14  1  0  0  0  0
 14 15  1  0  0  0  0
 15 16  1  0  0  0  0
 16 17  1  0  0  0  0
 17 18  1  0  0  0  0
 18 19  2  0  0  0  0
 18 20  1  0  0  0  0
 20 21  1  0  0  0  0
 21 22  1  0  0  0  0
 22 23  1  0  0  0  0
 23 24  1  0  0  0  0
 25 24  1  6  0  0  0
 25 26  1  1  0  0  0
 25 27  2  0  0  0  0
 25 28  1  0  0  0  0
 28 29  1  0  0  0  0
 29 30  1  0  0  0  0
 30 31  1  0  0  0  0
 31 32  1  0  0  0  0
 31 33  1  0  0  0  0
 31 34  1  0  0  0  0
 22 35  1  6  0  0  0
 35 36  1  0  0  0  0
 36 37  2  0  0  0  0
 36 38  1  0  0  0  0
 38 39  1  0  0  0  0
 39 40  1  0  0  0  0
 40 41  1  0  0  0  0
 41 42  1  0  0  0  0
 42 43  1  0  0  0  0
 43 44  1  0  0  0  0
 44 45  1  0  0  0  0
 45 46  1  0  0  0  0
 46 47  1  0  0  0  0
 47 48  1  0  0  0  0
 48 49  1  0  0  0  0
 49 50  1  0  0  0  0
 50 51  1  0  0  0  0
 51 52  1  0  0  0  0
 52 53  1  0  0  0  0
 53 54  1  0  0  0  0
M  END
> <DRUGBANK_ID>
DB04178

> <DRUG_GROUPS>
experimental

> <GENERIC_NAME>
Di-Stearoyl-3-Sn-Phosphatidylcholine

> <CHEMICAL_FORMULA>
C44H89NO8P

> <MOLECULAR_WEIGHT>
791.1531

> <EXACT_MASS>
790.632580341

> <IUPAC_NAME>
[(2S)-2,3-bis(octadecanoyloxy)propoxy][2-(trimethylazaniumyl)ethoxy]phosphinic acid

> <IUPAC_TRADITIONAL_NAME>
(2S)-2,3-bis(octadecanoyloxy)propoxy(2-(trimethylaminio)ethoxy)phosphinic acid

> <INCHI_IDENTIFIER>
InChI=1S/C44H88NO8P/c1-6-8-10-12-14-16-18-20-22-24-26-28-30-32-34-36-43(46)50-40-42(41-52-54(48,49)51-39-38-45(3,4)5)53-44(47)37-35-33-31-29-27-25-23-21-19-17-15-13-11-9-7-2/h42H,6-41H2,1-5H3/p+1/t42-/m0/s1

> <INCHI_KEY>
InChIKey=NRJAVPSFFCBXDT-WBCKFURZSA-O

> <SMILES>
CCCCCCCCCCCCCCCCCC(=O)OC[C@@H](CO[P@@](O)(=O)OCC[N+](C)(C)C)OC(=O)CCCCCCCCCCCCCCCCC

> <JCHEM_ACCEPTOR_COUNT>
4

> <JCHEM_DONOR_COUNT>
1

> <JCHEM_ACIDIC_PKA>
1.86

> <JCHEM_BASIC_PKA>
-6.7

> <JCHEM_PHYSIOLOGICAL_CHARGE>
0

> <ALOGPS_LOGP>
5.83

> <JCHEM_LOGP>
9.89

> <ALOGPS_LOGS>
-7.5

> <JCHEM_POLARIZABILITY>
100.58

> <JCHEM_POLAR_SURFACE_AREA>
108.36

> <JCHEM_REFRACTIVITY>
235.39

> <JCHEM_ROTATABLE_BOND_COUNT>
44

> <ALOGPS_SOLUBILITY>
2.96e-05 g/l __ 

$$$$
