
  Mrv0541 02231218062D          

 25 28  0  0  1  0            999 V2000
    1.9038   -1.5192    0.0000 O   0  0  0  0  0  0  0  0  0  0  0  0
    6.9476    2.2353    0.0000 O   0  0  0  0  0  0  0  0  0  0  0  0
    5.0329   -0.2392    0.0000 C   0  0  0  0  0  0  0  0  0  0  0  0
    5.7472   -0.6516    0.0000 C   0  0  0  0  0  0  0  0  0  0  0  0
    6.4617   -0.2392    0.0000 C   0  0  0  0  0  0  0  0  0  0  0  0
    4.2822   -0.6572    0.0000 C   0  0  2  0  0  0  0  0  0  0  0  0
    6.4617    0.5857    0.0000 C   0  0  2  0  0  0  0  0  0  0  0  0
    4.2756   -1.5164    0.0000 C   0  0  1  0  0  0  0  0  0  0  0  0
    5.0329    0.5857    0.0000 C   0  0  0  0  0  0  0  0  0  0  0  0
    5.7472    0.9982    0.0000 C   0  0  0  0  0  0  0  0  0  0  0  0
    5.7605   -1.5107    0.0000 C   0  0  0  0  0  0  0  0  0  0  0  0
    7.2423    0.8371    0.0000 C   0  0  2  0  0  0  0  0  0  0  0  0
    7.2423   -0.4904    0.0000 C   0  0  0  0  0  0  0  0  0  0  0  0
    5.0198   -1.9462    0.0000 C   0  0  0  0  0  0  0  0  0  0  0  0
    3.5176   -0.1920    0.0000 C   0  0  0  0  0  0  0  0  0  0  0  0
    7.7237    0.1733    0.0000 C   0  0  0  0  0  0  0  0  0  0  0  0
    3.5039   -1.9700    0.0000 C   0  0  0  0  0  0  0  0  0  0  0  0
    4.2886    0.1676    0.0000 C   0  0  0  0  0  0  0  0  0  0  0  0
    2.7287   -1.5224    0.0000 C   0  0  1  0  0  0  0  0  0  0  0  0
    6.4617    1.4107    0.0000 C   0  0  0  0  0  0  0  0  0  0  0  0
    2.7357   -0.6274    0.0000 C   0  0  0  0  0  0  0  0  0  0  0  0
    7.4984    1.6213    0.0000 C   0  0  0  0  0  0  0  0  0  0  0  0
    2.3136   -2.2353    0.0000 C   0  0  0  0  0  0  0  0  0  0  0  0
    8.3056    1.7914    0.0000 C   0  0  0  0  0  0  0  0  0  0  0  0
    4.2782   -2.1764    0.0000 H   0  0  0  0  0  0  0  0  0  0  0  0
 19  1  1  6  0  0  0
  2 22  2  0  0  0  0
  3  4  1  0  0  0  0
  3  6  1  0  0  0  0
  3  9  1  0  0  0  0
  4  5  1  0  0  0  0
  4 11  1  0  0  0  0
  5  7  1  0  0  0  0
  5 13  1  0  0  0  0
  6  8  1  0  0  0  0
  6 15  1  0  0  0  0
  6 18  1  1  0  0  0
  7 10  1  0  0  0  0
  7 12  1  0  0  0  0
  7 20  1  1  0  0  0
  8 14  1  0  0  0  0
  8 17  1  0  0  0  0
  8 25  1  6  0  0  0
  9 10  1  0  0  0  0
 11 14  1  0  0  0  0
 12 16  1  0  0  0  0
 12 22  1  1  0  0  0
 13 16  1  0  0  0  0
 15 21  1  0  0  0  0
 17 19  1  0  0  0  0
 19 21  1  0  0  0  0
 19 23  1  0  0  0  0
 22 24  1  0  0  0  0
M  END
> <DRUGBANK_ID>
DB05087

> <DRUG_GROUPS>
investigational

> <GENERIC_NAME>
Ganaxolone

> <SYNONYMS>


> <CHEMICAL_FORMULA>
C22H36O2

> <MOLECULAR_WEIGHT>
332.52

> <EXACT_MASS>
332.271530396

> <IUPAC_NAME>
1-[(2S,5R,7S,14S,15S)-5-hydroxy-2,5,15-trimethyltetracyclo[8.7.0.0^{2,7}.0^{11,15}]heptadecan-14-yl]ethan-1-one

> <IUPAC_TRADITIONAL_NAME>
1-[(2S,5R,7S,14S,15S)-5-hydroxy-2,5,15-trimethyltetracyclo[8.7.0.0^{2,7}.0^{11,15}]heptadecan-14-yl]ethanone

> <INCHI_IDENTIFIER>
InChI=1S/C22H36O2/c1-14(23)17-7-8-18-16-6-5-15-13-20(2,24)11-12-21(15,3)19(16)9-10-22(17,18)4/h15-19,24H,5-13H2,1-4H3/t15-,16?,17+,18?,19?,20+,21-,22+/m0/s1

> <INCHI_KEY>
InChIKey=PGTVWKLGGCQMBR-XYZZJYPZSA-N

> <SMILES>
[H][C@@]12CCC3C4CC[C@H](C(C)=O)[C@@]4(C)CCC3[C@@]1(C)CC[C@@](C)(O)C2

> <JCHEM_ACCEPTOR_COUNT>
2

> <JCHEM_DONOR_COUNT>
1

> <JCHEM_ACIDIC_PKA>
19.1

> <JCHEM_BASIC_PKA>
-1

> <JCHEM_PHYSIOLOGICAL_CHARGE>
0

> <ALOGPS_LOGP>
4.37

> <JCHEM_LOGP>
4.27

> <ALOGPS_LOGS>
-5.7

> <JCHEM_POLARIZABILITY>
40.63

> <JCHEM_POLAR_SURFACE_AREA>
37.3

> <JCHEM_REFRACTIVITY>
97.54

> <JCHEM_ROTATABLE_BOND_COUNT>
1

> <ALOGPS_SOLUBILITY>
7.12e-04 g/l __ 

$$$$
