
  Mrv0541 02231218112D          

 48 49  0  0  1  0            999 V2000
    5.9370    2.6813    0.0000 O   0  0  0  0  0  0  0  0  0  0  0  0
    5.9370    3.5063    0.0000 O   0  0  0  0  0  0  0  0  0  0  0  0
    6.6515   -0.2063    0.0000 O   0  0  0  0  0  0  0  0  0  0  0  0
    6.6515   -1.0313    0.0000 O   0  0  0  0  0  0  0  0  0  0  0  0
    4.5080   -4.7439    0.0000 O   0  0  0  0  0  0  0  0  0  0  0  0
    3.7935   -1.0313    0.0000 O   0  0  0  0  0  0  0  0  0  0  0  0
    5.9370    8.4564    0.0000 O   0  0  0  0  0  0  0  0  0  0  0  0
    4.5080   -3.9188    0.0000 O   0  0  0  0  0  0  0  0  0  0  0  0
    3.7935   -5.9814    0.0000 O   0  0  0  0  0  0  0  0  0  0  0  0
    2.3645   -8.4564    0.0000 O   0  0  0  0  0  0  0  0  0  0  0  0
    7.3659    3.5063    0.0000 N   0  0  0  0  0  0  0  0  0  0  0  0
    6.6515    1.4438    0.0000 N   0  0  0  0  0  0  0  0  0  0  0  0
    7.3659    5.1564    0.0000 N   0  0  0  0  0  0  0  0  0  0  0  0
    5.2224   -0.2063    0.0000 N   0  0  0  0  0  0  0  0  0  0  0  0
    3.0791   -3.9188    0.0000 N   0  0  0  0  0  0  0  0  0  0  0  0
    4.5080   -2.2688    0.0000 N   0  0  0  0  0  0  0  0  0  0  0  0
    8.0804    2.2688    0.0000 C   0  0  0  0  0  0  0  0  0  0  0  0
    8.7949    2.6813    0.0000 C   0  0  0  0  0  0  0  0  0  0  0  0
    7.3659    2.6813    0.0000 C   0  0  1  0  0  0  0  0  0  0  0  0
    9.5094    2.2688    0.0000 C   0  0  0  0  0  0  0  0  0  0  0  0
    8.7949    3.5063    0.0000 C   0  0  0  0  0  0  0  0  0  0  0  0
    6.6515    2.2688    0.0000 C   0  0  0  0  0  0  0  0  0  0  0  0
    6.6515    4.7439    0.0000 C   0  0  2  0  0  0  0  0  0  0  0  0
    6.6515    3.9188    0.0000 C   0  0  0  0  0  0  0  0  0  0  0  0
    5.9370    5.1564    0.0000 C   0  0  0  0  0  0  0  0  0  0  0  0
    5.9370    1.0313    0.0000 C   0  0  0  0  0  0  0  0  0  0  0  0
    5.9370    5.9814    0.0000 C   0  0  0  0  0  0  0  0  0  0  0  0
    5.9370    0.2063    0.0000 C   0  0  0  0  0  0  0  0  0  0  0  0
    5.2224   -1.0313    0.0000 C   0  0  2  0  0  0  0  0  0  0  0  0
    3.0791   -4.7439    0.0000 C   0  0  1  0  0  0  0  0  0  0  0  0
    6.6515    6.3939    0.0000 C   0  0  0  0  0  0  0  0  0  0  0  0
    5.2224    6.3939    0.0000 C   0  0  0  0  0  0  0  0  0  0  0  0
    2.3645   -5.1564    0.0000 C   0  0  0  0  0  0  0  0  0  0  0  0
    4.5080   -1.4438    0.0000 C   0  0  0  0  0  0  0  0  0  0  0  0
    5.9370   -1.4438    0.0000 C   0  0  0  0  0  0  0  0  0  0  0  0
    2.3645   -5.9814    0.0000 C   0  0  0  0  0  0  0  0  0  0  0  0
    6.6515    7.2189    0.0000 C   0  0  0  0  0  0  0  0  0  0  0  0
    5.2224    7.2189    0.0000 C   0  0  0  0  0  0  0  0  0  0  0  0
    3.7935   -2.6813    0.0000 C   0  0  0  0  0  0  0  0  0  0  0  0
    3.7935   -3.5063    0.0000 C   0  0  0  0  0  0  0  0  0  0  0  0
    5.9370    7.6314    0.0000 C   0  0  0  0  0  0  0  0  0  0  0  0
    3.7935   -5.1564    0.0000 C   0  0  0  0  0  0  0  0  0  0  0  0
    3.0791   -6.3939    0.0000 C   0  0  0  0  0  0  0  0  0  0  0  0
    1.6500   -6.3939    0.0000 C   0  0  0  0  0  0  0  0  0  0  0  0
    3.0791   -7.2189    0.0000 C   0  0  0  0  0  0  0  0  0  0  0  0
    1.6500   -7.2189    0.0000 C   0  0  0  0  0  0  0  0  0  0  0  0
    2.3645   -7.6314    0.0000 C   0  0  0  0  0  0  0  0  0  0  0  0
    5.2224   -5.1564    0.0000 C   0  0  0  0  0  0  0  0  0  0  0  0
  1 22  2  0  0  0  0
  2 24  2  0  0  0  0
  3 28  2  0  0  0  0
  4 35  1  0  0  0  0
  5 42  1  0  0  0  0
  5 48  1  0  0  0  0
  6 34  2  0  0  0  0
  7 41  1  0  0  0  0
  8 40  2  0  0  0  0
  9 42  2  0  0  0  0
 10 47  1  0  0  0  0
 19 11  1  1  0  0  0
 11 24  1  0  0  0  0
 12 22  1  0  0  0  0
 12 26  1  0  0  0  0
 23 13  1  6  0  0  0
 14 28  1  0  0  0  0
 29 14  1  1  0  0  0
 30 15  1  6  0  0  0
 15 40  1  0  0  0  0
 16 34  1  0  0  0  0
 16 39  1  0  0  0  0
 17 18  1  0  0  0  0
 17 19  1  0  0  0  0
 18 20  1  0  0  0  0
 18 21  1  0  0  0  0
 19 22  1  0  0  0  0
 23 24  1  0  0  0  0
 23 25  1  0  0  0  0
 25 27  1  0  0  0  0
 26 28  1  0  0  0  0
 27 31  2  0  0  0  0
 27 32  1  0  0  0  0
 29 34  1  0  0  0  0
 29 35  1  0  0  0  0
 30 33  1  0  0  0  0
 30 42  1  0  0  0  0
 31 37  1  0  0  0  0
 32 38  2  0  0  0  0
 33 36  1  0  0  0  0
 36 43  2  0  0  0  0
 36 44  1  0  0  0  0
 37 41  2  0  0  0  0
 38 41  1  0  0  0  0
 39 40  1  0  0  0  0
 43 45  1  0  0  0  0
 44 46  2  0  0  0  0
 45 47  2  0  0  0  0
 46 47  1  0  0  0  0
M  END
> <DRUGBANK_ID>
DB05426

> <DRUG_GROUPS>
investigational

> <GENERIC_NAME>
talactoferrin alpha

> <CHEMICAL_FORMULA>
C32H44N6O10

> <MOLECULAR_WEIGHT>
672.726

> <EXACT_MASS>
672.311891658

> <IUPAC_NAME>
methyl (2S)-2-{2-[(2S)-2-{2-[(2S)-2-[(2S)-2-amino-3-(4-hydroxyphenyl)propanamido]-4-methylpentanamido]acetamido}-3-hydroxypropanamido]acetamido}-3-(4-hydroxyphenyl)propanoate

> <IUPAC_TRADITIONAL_NAME>
methyl (2S)-2-{2-[(2S)-2-{2-[(2S)-2-[(2S)-2-amino-3-(4-hydroxyphenyl)propanamido]-4-methylpentanamido]acetamido}-3-hydroxypropanamido]acetamido}-3-(4-hydroxyphenyl)propanoate

> <INCHI_IDENTIFIER>
InChI=1S/C32H44N6O10/c1-18(2)12-24(38-29(44)23(33)13-19-4-8-21(40)9-5-19)30(45)34-16-28(43)37-26(17-39)31(46)35-15-27(42)36-25(32(47)48-3)14-20-6-10-22(41)11-7-20/h4-11,18,23-26,39-41H,12-17,33H2,1-3H3,(H,34,45)(H,35,46)(H,36,42)(H,37,43)(H,38,44)/t23-,24-,25-,26-/m0/s1

> <INCHI_KEY>
InChIKey=XKVDFADVPPHGJR-CQJMVLFOSA-N

> <SMILES>
COC(=O)[C@H](CC1=CC=C(O)C=C1)NC(=O)CNC(=O)[C@H](CO)NC(=O)CNC(=O)[C@H](CC(C)C)NC(=O)[C@@H](N)CC1=CC=C(O)C=C1

> <JCHEM_ACCEPTOR_COUNT>
10

> <JCHEM_DONOR_COUNT>
9

> <JCHEM_ACIDIC_PKA>
9.21

> <JCHEM_BASIC_PKA>
7.72

> <JCHEM_PHYSIOLOGICAL_CHARGE>
1

> <ALOGPS_LOGP>
0.55

> <JCHEM_LOGP>
-1.6

> <ALOGPS_LOGS>
-4.1

> <JCHEM_POLARIZABILITY>
68.36

> <JCHEM_POLAR_SURFACE_AREA>
258.51

> <JCHEM_REFRACTIVITY>
171.18

> <JCHEM_ROTATABLE_BOND_COUNT>
19

> <ALOGPS_SOLUBILITY>
5.37e-02 g/l __ 

$$$$
