
  Mrv0541 02231218062D          

 82 87  0  0  1  0            999 V2000
    9.3512    4.4726    0.0000 O   0  0  0  0  0  0  0  0  0  0  0  0
    6.8099    2.4737    0.0000 O   0  0  0  0  0  0  0  0  0  0  0  0
    5.6557    3.0409    0.0000 O   0  0  0  0  0  0  0  0  0  0  0  0
   11.0826    4.9784    0.0000 O   0  0  0  0  0  0  0  0  0  0  0  0
    3.9246    4.1679    0.0000 O   0  0  0  0  0  0  0  0  0  0  0  0
    7.9493    3.8262    0.0000 O   0  0  0  0  0  0  0  0  0  0  0  0
    7.7006    4.2994    0.0000 O   0  0  0  0  0  0  0  0  0  0  0  0
    5.3563    4.5432    0.0000 O   0  0  0  0  0  0  0  0  0  0  0  0
    6.3502    6.1807    0.0000 O   0  0  0  0  0  0  0  0  0  0  0  0
    9.5431    2.6594    0.0000 O   0  0  0  0  0  0  0  0  0  0  0  0
    7.0640    3.9428    0.0000 O   0  0  0  0  0  0  0  0  0  0  0  0
    3.7935    3.2283    0.0000 O   0  0  0  0  0  0  0  0  0  0  0  0
    4.5080   -2.9593    0.0000 O   0  0  0  0  0  0  0  0  0  0  0  0
    6.7826    4.1679    0.0000 N   0  0  0  0  0  0  0  0  0  0  0  0
    9.1733    4.0397    0.0000 N   0  0  0  0  0  0  0  0  0  0  0  0
    7.7579    2.1219    0.0000 N   0  0  0  0  0  0  0  0  0  0  0  0
    5.3535    4.9929    0.0000 N   0  0  0  0  0  0  0  0  0  0  0  0
    7.5794    5.2065    0.0000 N   0  0  0  0  0  0  0  0  0  0  0  0
    6.2046    0.6452    0.0000 N   0  0  0  0  0  0  0  0  0  0  0  0
    7.3659    2.8158    0.0000 N   0  0  0  0  0  0  0  0  0  0  0  0
    5.2224    3.2283    0.0000 N   0  0  0  0  0  0  0  0  0  0  0  0
    6.8934   -1.4261    0.0000 N   0  0  0  0  0  0  0  0  0  0  0  0
    8.0803    5.5907    0.0000 C   0  0  2  0  0  0  0  0  0  0  0  0
    8.5268    4.4384    0.0000 C   0  0  1  0  0  0  0  0  0  0  0  0
    7.4970    3.7554    0.0000 C   0  0  1  0  0  0  0  0  0  0  0  0
    6.8592    5.4013    0.0000 C   0  0  0  0  0  0  0  0  0  0  0  0
    8.4928    6.3051    0.0000 C   0  0  0  0  0  0  0  0  0  0  0  0
    7.4970    2.9304    0.0000 C   0  0  0  0  0  0  0  0  0  0  0  0
    6.0681    3.7554    0.0000 C   0  0  0  0  0  0  0  0  0  0  0  0
    8.9598    4.8367    0.0000 C   0  0  1  0  0  0  0  0  0  0  0  0
    5.3535    4.1679    0.0000 C   0  0  1  0  0  0  0  0  0  0  0  0
    9.6488    5.2815    0.0000 C   0  0  0  0  0  0  0  0  0  0  0  0
   10.2857    4.7649    0.0000 C   0  0  2  0  0  0  0  0  0  0  0  0
    9.9924    3.9989    0.0000 C   0  0  0  0  0  0  0  0  0  0  0  0
    7.3454    1.4074    0.0000 C   0  0  0  0  0  0  0  0  0  0  0  0
    6.5204    1.4074    0.0000 C   0  0  0  0  0  0  0  0  0  0  0  0
    8.1628    4.6231    0.0000 C   0  0  0  0  0  0  0  0  0  0  0  0
    8.3763    3.8262    0.0000 C   0  0  0  0  0  0  0  0  0  0  0  0
    4.6391    3.7554    0.0000 C   0  0  0  0  0  0  0  0  0  0  0  0
    6.7826    4.9929    0.0000 C   0  0  2  0  0  0  0  0  0  0  0  0
    5.9370    1.9908    0.0000 C   0  0  0  0  0  0  0  0  0  0  0  0
    8.1628    3.0293    0.0000 C   0  0  2  0  0  0  0  0  0  0  0  0
    5.9370    2.8158    0.0000 C   0  0  0  0  0  0  0  0  0  0  0  0
    6.0681    5.4054    0.0000 C   0  0  0  0  0  0  0  0  0  0  0  0
    5.9646    5.1006    0.0000 C   0  0  1  0  0  0  0  0  0  0  0  0
    8.7462    2.4459    0.0000 C   0  0  1  0  0  0  0  0  0  0  0  0
    6.6515    3.2283    0.0000 C   0  0  0  0  0  0  0  0  0  0  0  0
    5.7861    5.9061    0.0000 C   0  0  0  0  0  0  0  0  0  0  0  0
    6.7068   -0.0094    0.0000 C   0  0  0  0  0  0  0  0  0  0  0  0
    8.9598    1.6490    0.0000 C   0  0  0  0  0  0  0  0  0  0  0  0
    5.2287    6.5144    0.0000 C   0  0  0  0  0  0  0  0  0  0  0  0
    6.3912   -0.7716    0.0000 C   0  0  0  0  0  0  0  0  0  0  0  0
    4.5080    2.8158    0.0000 C   0  0  0  0  0  0  0  0  0  0  0  0
    4.4233    6.3358    0.0000 C   0  0  0  0  0  0  0  0  0  0  0  0
    5.4768    7.3012    0.0000 C   0  0  0  0  0  0  0  0  0  0  0  0
    4.5080    1.9908    0.0000 C   0  0  0  0  0  0  0  0  0  0  0  0
    3.8659    6.9442    0.0000 C   0  0  0  0  0  0  0  0  0  0  0  0
    4.9194    7.9094    0.0000 C   0  0  0  0  0  0  0  0  0  0  0  0
    4.1140    7.7309    0.0000 C   0  0  0  0  0  0  0  0  0  0  0  0
    3.7935    1.5783    0.0000 C   0  0  0  0  0  0  0  0  0  0  0  0
    5.2224    1.5783    0.0000 C   0  0  0  0  0  0  0  0  0  0  0  0
    3.7935    0.7532    0.0000 C   0  0  0  0  0  0  0  0  0  0  0  0
    5.2224    0.7532    0.0000 C   0  0  0  0  0  0  0  0  0  0  0  0
    4.5080    0.3407    0.0000 C   0  0  0  0  0  0  0  0  0  0  0  0
    4.5080   -0.4843    0.0000 C   0  0  0  0  0  0  0  0  0  0  0  0
    5.2224   -0.8968    0.0000 C   0  0  0  0  0  0  0  0  0  0  0  0
    3.7935   -0.8968    0.0000 C   0  0  0  0  0  0  0  0  0  0  0  0
    5.2224   -1.7218    0.0000 C   0  0  0  0  0  0  0  0  0  0  0  0
    3.7935   -1.7218    0.0000 C   0  0  0  0  0  0  0  0  0  0  0  0
    3.0791   -5.4344    0.0000 C   0  0  0  0  0  0  0  0  0  0  0  0
    4.5080   -2.1343    0.0000 C   0  0  0  0  0  0  0  0  0  0  0  0
    3.0791   -4.6094    0.0000 C   0  0  0  0  0  0  0  0  0  0  0  0
    2.3645   -5.8469    0.0000 C   0  0  0  0  0  0  0  0  0  0  0  0
    3.7935   -4.1969    0.0000 C   0  0  0  0  0  0  0  0  0  0  0  0
    2.3645   -6.6719    0.0000 C   0  0  0  0  0  0  0  0  0  0  0  0
    3.7935   -3.3718    0.0000 C   0  0  0  0  0  0  0  0  0  0  0  0
    1.6500   -7.0844    0.0000 C   0  0  0  0  0  0  0  0  0  0  0  0
    1.6500   -7.9094    0.0000 C   0  0  0  0  0  0  0  0  0  0  0  0
    8.1150    3.4238    0.0000 H   0  0  0  0  0  0  0  0  0  0  0  0
    8.6753    5.4776    0.0000 H   0  0  0  0  0  0  0  0  0  0  0  0
    6.8284    4.2932    0.0000 H   0  0  0  0  0  0  0  0  0  0  0  0
    7.9813    2.3520    0.0000 H   0  0  0  0  0  0  0  0  0  0  0  0
 24  1  1  6  0  0  0
  2 28  2  0  0  0  0
  3 29  2  0  0  0  0
 33  4  1  1  0  0  0
  5 39  1  0  0  0  0
  6 37  2  0  0  0  0
  7 38  2  0  0  0  0
 45  8  1  6  0  0  0
  9 44  2  0  0  0  0
 46 10  1  6  0  0  0
 11 47  2  0  0  0  0
 12 53  2  0  0  0  0
 13 71  1  0  0  0  0
 13 76  1  0  0  0  0
 14 25  1  0  0  0  0
 14 26  1  0  0  0  0
 14 29  1  0  0  0  0
 15 30  1  0  0  0  0
 15 34  1  0  0  0  0
 15 38  1  0  0  0  0
 16 28  1  0  0  0  0
 16 35  1  0  0  0  0
 17 31  1  0  0  0  0
 17 44  1  0  0  0  0
 18 37  1  0  0  0  0
 18 40  1  0  0  0  0
 19 36  1  0  0  0  0
 19 49  1  0  0  0  0
 20 42  1  0  0  0  0
 20 47  1  0  0  0  0
 21 43  1  0  0  0  0
 21 53  1  0  0  0  0
 22 52  1  0  0  0  0
 23 24  1  0  0  0  0
 23 26  1  0  0  0  0
 23 27  1  6  0  0  0
 24 25  1  0  0  0  0
 25 28  1  0  0  0  0
 25 79  1  6  0  0  0
 29 31  1  0  0  0  0
 30 32  1  0  0  0  0
 30 37  1  0  0  0  0
 30 80  1  1  0  0  0
 31 39  1  1  0  0  0
 32 33  1  0  0  0  0
 33 34  1  0  0  0  0
 35 36  1  0  0  0  0
 36 41  1  0  0  0  0
 38 42  1  0  0  0  0
 40 44  1  0  0  0  0
 40 45  1  0  0  0  0
 40 81  1  6  0  0  0
 41 43  1  0  0  0  0
 42 46  1  0  0  0  0
 42 82  1  1  0  0  0
 43 47  1  0  0  0  0
 45 48  1  0  0  0  0
 46 50  1  0  0  0  0
 48 51  1  0  0  0  0
 49 52  1  0  0  0  0
 51 54  2  0  0  0  0
 51 55  1  0  0  0  0
 53 56  1  0  0  0  0
 54 57  1  0  0  0  0
 55 58  2  0  0  0  0
 56 60  2  0  0  0  0
 56 61  1  0  0  0  0
 57 59  2  0  0  0  0
 58 59  1  0  0  0  0
 60 62  1  0  0  0  0
 61 63  2  0  0  0  0
 62 64  2  0  0  0  0
 63 64  1  0  0  0  0
 64 65  1  0  0  0  0
 65 66  2  0  0  0  0
 65 67  1  0  0  0  0
 66 68  1  0  0  0  0
 67 69  2  0  0  0  0
 68 71  2  0  0  0  0
 69 71  1  0  0  0  0
 70 72  1  0  0  0  0
 70 73  1  0  0  0  0
 72 74  1  0  0  0  0
 73 75  1  0  0  0  0
 74 76  1  0  0  0  0
 75 77  1  0  0  0  0
 77 78  1  0  0  0  0
M  END
> <DRUGBANK_ID>
DB05128

> <DRUG_GROUPS>
investigational

> <GENERIC_NAME>
Aminocandin

> <SYNONYMS>


> <CHEMICAL_FORMULA>
C56H79N9O13

> <MOLECULAR_WEIGHT>
1086.279

> <EXACT_MASS>
1085.579733659

> <IUPAC_NAME>
N-[(3R,6S,9S,11R,15S,24S,25S,26S)-20-[(2-aminoethyl)amino]-11,25-dihydroxy-6-[(1R)-1-hydroxy-2-phenylethyl]-15-[(1R)-1-hydroxyethyl]-3-(hydroxymethyl)-26-methyl-2,5,8,14,17,23-hexaoxo-1,4,7,13,16,22-hexaazatricyclo[22.3.0.0^{9,13}]heptacosan-18-yl]-4-[4-(octyloxy)phenyl]benzamide

> <IUPAC_TRADITIONAL_NAME>
N-[(3R,6S,9S,11R,15S,24S,25S,26S)-20-[(2-aminoethyl)amino]-11,25-dihydroxy-6-[(1R)-1-hydroxy-2-phenylethyl]-15-[(1R)-1-hydroxyethyl]-3-(hydroxymethyl)-26-methyl-2,5,8,14,17,23-hexaoxo-1,4,7,13,16,22-hexaazatricyclo[22.3.0.0^{9,13}]heptacosan-18-yl]-4-[4-(octyloxy)phenyl]benzamide

> <INCHI_IDENTIFIER>
InChI=1S/C56H79N9O13/c1-4-5-6-7-8-12-25-78-41-21-19-37(20-22-41)36-15-17-38(18-16-36)50(71)60-42-27-39(58-24-23-57)29-59-54(75)48-49(70)33(2)30-65(48)55(76)43(32-66)61-53(74)47(45(69)26-35-13-10-9-11-14-35)63-52(73)44-28-40(68)31-64(44)56(77)46(34(3)67)62-51(42)72/h9-11,13-22,33-34,39-40,42-49,58,66-70H,4-8,12,23-32,57H2,1-3H3,(H,59,75)(H,60,71)(H,61,74)(H,62,72)(H,63,73)/t33-,34+,39?,40+,42?,43+,44-,45+,46-,47-,48-,49-/m0/s1

> <INCHI_KEY>
InChIKey=JYBUOENGZWTZGU-JZCGONIASA-N

> <SMILES>
[H][C@@]12C[C@@H](O)CN1C(=O)[C@@]([H])(NC(=O)C(CC(CNC(=O)[C@]1([H])[C@@H](O)[C@@H](C)CN1C(=O)[C@@H](CO)NC(=O)[C@@]([H])(NC2=O)[C@H](O)CC1=CC=CC=C1)NCCN)NC(=O)C1=CC=C(C=C1)C1=CC=C(OCCCCCCCC)C=C1)[C@@H](C)O

> <JCHEM_ACCEPTOR_COUNT>
15

> <JCHEM_DONOR_COUNT>
12

> <JCHEM_ACIDIC_PKA>
11.38

> <JCHEM_BASIC_PKA>
9.53

> <JCHEM_PHYSIOLOGICAL_CHARGE>
1

> <ALOGPS_LOGP>
1.09

> <JCHEM_LOGP>
-1.1

> <ALOGPS_LOGS>
-4.4

> <JCHEM_POLARIZABILITY>
119.22

> <JCHEM_POLAR_SURFACE_AREA>
334.55

> <JCHEM_REFRACTIVITY>
286.7

> <JCHEM_ROTATABLE_BOND_COUNT>
19

> <ALOGPS_SOLUBILITY>
3.97e-02 g/l __ 

$$$$
