
  Mrv0541 02231218062D          

 26 29  0  0  1  0            999 V2000
    8.6275    0.3477    0.0000 Br   0  0  0  0  0  0  0  0  0  0  0  0
    2.0917   -1.7578    0.0000 O    0  0  0  0  0  0  0  0  0  0  0  0
    7.5775    1.7956    0.0000 O    0  0  0  0  0  0  0  0  0  0  0  0
    5.1119   -0.0648    0.0000 C    0  0  2  0  0  0  0  0  0  0  0  0
    4.3612   -0.4829    0.0000 C    0  0  2  0  0  0  0  0  0  0  0  0
    5.8262   -0.4772    0.0000 C    0  0  2  0  0  0  0  0  0  0  0  0
    6.5406   -0.0648    0.0000 C    0  0  1  0  0  0  0  0  0  0  0  0
    4.3545   -1.3421    0.0000 C    0  0  1  0  0  0  0  0  0  0  0  0
    6.5406    0.7602    0.0000 C    0  0  2  0  0  0  0  0  0  0  0  0
    5.1119    0.7602    0.0000 C    0  0  0  0  0  0  0  0  0  0  0  0
    5.8395   -1.3363    0.0000 C    0  0  0  0  0  0  0  0  0  0  0  0
    5.8262    1.1727    0.0000 C    0  0  0  0  0  0  0  0  0  0  0  0
    5.0987   -1.7718    0.0000 C    0  0  0  0  0  0  0  0  0  0  0  0
    3.5966   -0.0176    0.0000 C    0  0  0  0  0  0  0  0  0  0  0  0
    7.3211   -0.3162    0.0000 C    0  0  0  0  0  0  0  0  0  0  0  0
    3.5829   -1.7956    0.0000 C    0  0  0  0  0  0  0  0  0  0  0  0
    4.3676    0.3421    0.0000 C    0  0  0  0  0  0  0  0  0  0  0  0
    7.3211    1.0115    0.0000 C    0  0  0  0  0  0  0  0  0  0  0  0
    7.8026    0.3477    0.0000 C    0  0  2  0  0  0  0  0  0  0  0  0
    2.8147   -0.4531    0.0000 C    0  0  0  0  0  0  0  0  0  0  0  0
    2.8078   -1.3480    0.0000 C    0  0  2  0  0  0  0  0  0  0  0  0
    6.5406    1.5851    0.0000 C    0  0  0  0  0  0  0  0  0  0  0  0
    5.6833    0.2652    0.0000 H    0  0  0  0  0  0  0  0  0  0  0  0
    6.4003   -0.8028    0.0000 H    0  0  0  0  0  0  0  0  0  0  0  0
    6.6105   -0.7210    0.0000 H    0  0  0  0  0  0  0  0  0  0  0  0
    4.3571   -2.0021    0.0000 H    0  0  0  0  0  0  0  0  0  0  0  0
 19  1  1  6  0  0  0
 21  2  1  1  0  0  0
  3 18  2  0  0  0  0
  4  5  1  0  0  0  0
  4  6  1  0  0  0  0
  4 10  1  0  0  0  0
  4 23  1  6  0  0  0
  5  8  1  0  0  0  0
  5 14  1  0  0  0  0
  5 17  1  1  0  0  0
  6  7  1  0  0  0  0
  6 11  1  0  0  0  0
  6 24  1  1  0  0  0
  7  9  1  0  0  0  0
  7 15  1  0  0  0  0
  7 25  1  6  0  0  0
  8 13  1  0  0  0  0
  8 16  1  0  0  0  0
  8 26  1  6  0  0  0
  9 12  1  0  0  0  0
  9 18  1  0  0  0  0
  9 22  1  1  0  0  0
 10 12  1  0  0  0  0
 11 13  1  0  0  0  0
 14 20  1  0  0  0  0
 15 19  1  0  0  0  0
 16 21  1  0  0  0  0
 18 19  1  0  0  0  0
 20 21  1  0  0  0  0
M  END
> <DRUGBANK_ID>
DB05107

> <DRUG_GROUPS>
investigational

> <GENERIC_NAME>
HE2000

> <BRANDS>


> <CHEMICAL_FORMULA>
C19H29BrO2

> <MOLECULAR_WEIGHT>
369.336

> <EXACT_MASS>
368.135092819

> <IUPAC_NAME>
(1S,2S,5S,7S,10R,11S,13R,15S)-13-bromo-5-hydroxy-2,15-dimethyltetracyclo[8.7.0.0^{2,7}.0^{11,15}]heptadecan-14-one

> <IUPAC_TRADITIONAL_NAME>
(1S,2S,5S,7S,10R,11S,13R,15S)-13-bromo-5-hydroxy-2,15-dimethyltetracyclo[8.7.0.0^{2,7}.0^{11,15}]heptadecan-14-one

> <INCHI_IDENTIFIER>
InChI=1S/C19H29BrO2/c1-18-7-5-12(21)9-11(18)3-4-13-14(18)6-8-19(2)15(13)10-16(20)17(19)22/h11-16,21H,3-10H2,1-2H3/t11-,12-,13+,14-,15-,16+,18-,19-/m0/s1

> <INCHI_KEY>
InChIKey=CWVMWSZEMZOUPC-JUAXIXHSSA-N

> <SMILES>
[H][C@@]12C[C@@H](Br)C(=O)[C@@]1(C)CC[C@@]1([H])[C@@]2([H])CC[C@@]2([H])C[C@@H](O)CC[C@]12C

> <JCHEM_ACCEPTOR_COUNT>
2

> <JCHEM_DONOR_COUNT>
1

> <JCHEM_ACIDIC_PKA>
17.86

> <JCHEM_BASIC_PKA>
-1.4

> <JCHEM_PHYSIOLOGICAL_CHARGE>
0

> <ALOGPS_LOGP>
4.45

> <JCHEM_LOGP>
4.44

> <ALOGPS_LOGS>
-5.2

> <JCHEM_POLARIZABILITY>
37.98

> <JCHEM_POLAR_SURFACE_AREA>
37.3

> <JCHEM_REFRACTIVITY>
91.34

> <JCHEM_ROTATABLE_BOND_COUNT>
0

> <ALOGPS_SOLUBILITY>
2.09e-03 g/l __ 

$$$$
