
  Mrv0541 02231218082D          

 26 28  0  0  0  0            999 V2000
    6.3345    1.0747    0.0000 S   0  0  0  0  0  0  0  0  0  0  0  0
    4.2381   -1.8853    0.0000 O   0  0  0  0  0  0  0  0  0  0  0  0
    5.6670   -2.7103    0.0000 O   0  0  0  0  0  0  0  0  0  0  0  0
    2.1587    3.6892    0.0000 O   0  0  0  0  0  0  0  0  0  0  0  0
    2.3082    2.2681    0.0000 O   0  0  0  0  0  0  0  0  0  0  0  0
    4.9996    1.0747    0.0000 N   0  0  0  0  0  0  0  0  0  0  0  0
    3.9491    2.4405    0.0000 N   0  0  0  0  0  0  0  0  0  0  0  0
    5.6670   -0.2353    0.0000 C   0  0  0  0  0  0  0  0  0  0  0  0
    4.9526   -1.4728    0.0000 C   0  0  0  0  0  0  0  0  0  0  0  0
    4.9526   -0.6478    0.0000 C   0  0  0  0  0  0  0  0  0  0  0  0
    5.6670   -1.8853    0.0000 C   0  0  0  0  0  0  0  0  0  0  0  0
    5.6670    0.5897    0.0000 C   0  0  0  0  0  0  0  0  0  0  0  0
    6.3815   -0.6478    0.0000 C   0  0  0  0  0  0  0  0  0  0  0  0
    6.3815   -1.4728    0.0000 C   0  0  0  0  0  0  0  0  0  0  0  0
    5.2545    1.8593    0.0000 C   0  0  0  0  0  0  0  0  0  0  0  0
    4.7696    2.5267    0.0000 C   0  0  0  0  0  0  0  0  0  0  0  0
    6.0796    1.8593    0.0000 C   0  0  0  0  0  0  0  0  0  0  0  0
    3.5236   -1.4728    0.0000 C   0  0  0  0  0  0  0  0  0  0  0  0
    6.3815   -3.1229    0.0000 C   0  0  0  0  0  0  0  0  0  0  0  0
    5.1052    3.2804    0.0000 C   0  0  0  0  0  0  0  0  0  0  0  0
    3.4642    3.1079    0.0000 C   0  0  0  0  0  0  0  0  0  0  0  0
    2.8091   -1.8853    0.0000 C   0  0  0  0  0  0  0  0  0  0  0  0
    4.6203    3.9479    0.0000 C   0  0  0  0  0  0  0  0  0  0  0  0
    6.3815   -3.9479    0.0000 C   0  0  0  0  0  0  0  0  0  0  0  0
    3.7997    3.8617    0.0000 C   0  0  0  0  0  0  0  0  0  0  0  0
    2.6437    3.0217    0.0000 C   0  0  0  0  0  0  0  0  0  0  0  0
  1 12  1  0  0  0  0
  1 17  1  0  0  0  0
  2  9  1  0  0  0  0
  2 18  1  0  0  0  0
  3 11  1  0  0  0  0
  3 19  1  0  0  0  0
  4 26  1  0  0  0  0
  5 26  2  0  0  0  0
  6 12  2  0  0  0  0
  6 15  1  0  0  0  0
  7 16  2  0  0  0  0
  7 21  1  0  0  0  0
  8 10  2  0  0  0  0
  8 12  1  0  0  0  0
  8 13  1  0  0  0  0
  9 10  1  0  0  0  0
  9 11  2  0  0  0  0
 11 14  1  0  0  0  0
 13 14  2  0  0  0  0
 15 16  1  0  0  0  0
 15 17  2  0  0  0  0
 16 20  1  0  0  0  0
 18 22  1  0  0  0  0
 19 24  1  0  0  0  0
 20 23  2  0  0  0  0
 21 25  2  0  0  0  0
 21 26  1  0  0  0  0
 23 25  1  0  0  0  0
M  END
> <DRUGBANK_ID>
DB05298

> <DRUG_GROUPS>
investigational

> <GENERIC_NAME>
OPC-6535

> <CHEMICAL_FORMULA>
C19H18N2O4S

> <MOLECULAR_WEIGHT>
370.422

> <EXACT_MASS>
370.098727764

> <IUPAC_NAME>
6-[2-(3,4-diethoxyphenyl)-1,3-thiazol-4-yl]pyridine-2-carboxylic acid

> <IUPAC_TRADITIONAL_NAME>
tetomilast

> <INCHI_IDENTIFIER>
InChI=1S/C19H18N2O4S/c1-3-24-16-9-8-12(10-17(16)25-4-2)18-21-15(11-26-18)13-6-5-7-14(20-13)19(22)23/h5-11H,3-4H2,1-2H3,(H,22,23)

> <INCHI_KEY>
InChIKey=XDBHURGONHZNJF-UHFFFAOYSA-N

> <SMILES>
CCOC1=C(OCC)C=C(C=C1)C1=NC(=CS1)C1=NC(=CC=C1)C(O)=O

> <JCHEM_ACCEPTOR_COUNT>
6

> <JCHEM_DONOR_COUNT>
1

> <JCHEM_ACIDIC_PKA>
3.62

> <JCHEM_BASIC_PKA>
-0.68

> <JCHEM_PHYSIOLOGICAL_CHARGE>
-1

> <ALOGPS_LOGP>
4.38

> <JCHEM_LOGP>
4.3

> <ALOGPS_LOGS>
-5.1

> <JCHEM_POLARIZABILITY>
39.86

> <JCHEM_POLAR_SURFACE_AREA>
81.54

> <JCHEM_REFRACTIVITY>
107.91

> <JCHEM_ROTATABLE_BOND_COUNT>
7

> <ALOGPS_SOLUBILITY>
3.01e-03 g/l __ 

$$$$
