[NO NAME]
  Mrv0541 04211211512D          
Created with ChemWriter - http://chemwriter.com
 29 32  0  0  1  0            999 V2000
    7.5678   -0.2005    0.0000 O   0  0  0  0  0  0  0  0  0  0  0  0
    6.8533   -3.9131    0.0000 O   0  0  0  0  0  0  0  0  0  0  0  0
    9.7657   -3.1080    0.0000 O   0  0  0  0  0  0  0  0  0  0  0  0
    6.1389    0.6245    0.0000 N   0  0  0  0  0  0  0  0  0  0  0  0
    8.3054   -3.1167    0.0000 N   0  0  0  0  0  0  0  0  0  0  0  0
    5.4244    1.0370    0.0000 C   0  0  0  0  0  0  0  0  0  0  0  0
    4.6755    0.7028    0.0000 C   0  0  0  0  0  0  0  0  0  0  0  0
    5.3394    1.8527    0.0000 C   0  0  0  0  0  0  0  0  0  0  0  0
    4.1251    1.3109    0.0000 C   0  0  0  0  0  0  0  0  0  0  0  0
    4.5376    2.0253    0.0000 C   0  0  0  0  0  0  0  0  0  0  0  0
    3.3001    1.3109    0.0000 C   0  0  0  0  0  0  0  0  0  0  0  0
    4.1251    2.7399    0.0000 C   0  0  0  0  0  0  0  0  0  0  0  0
    6.1389   -0.2005    0.0000 C   0  0  0  0  0  0  0  0  0  0  0  0
    2.8876    2.0253    0.0000 C   0  0  0  0  0  0  0  0  0  0  0  0
    3.3001    2.7399    0.0000 C   0  0  0  0  0  0  0  0  0  0  0  0
    6.8533   -0.6130    0.0000 C   0  0  1  0  0  0  0  0  0  0  0  0
    2.0625    2.0253    0.0000 C   0  0  0  0  0  0  0  0  0  0  0  0
    2.8876    3.4544    0.0000 C   0  0  0  0  0  0  0  0  0  0  0  0
    6.8533   -1.4380    0.0000 C   0  0  0  0  0  0  0  0  0  0  0  0
    7.5678   -1.8505    0.0000 C   0  0  0  0  0  0  0  0  0  0  0  0
    1.6500    1.3109    0.0000 C   0  0  0  0  0  0  0  0  0  0  0  0
    3.3001    4.1688    0.0000 C   0  0  0  0  0  0  0  0  0  0  0  0
    6.1389   -1.8505    0.0000 C   0  0  0  0  0  0  0  0  0  0  0  0
    7.5678   -2.6755    0.0000 C   0  0  0  0  0  0  0  0  0  0  0  0
    6.1389   -2.6755    0.0000 C   0  0  0  0  0  0  0  0  0  0  0  0
    8.3054   -1.4094    0.0000 C   0  0  0  0  0  0  0  0  0  0  0  0
    6.8533   -3.0880    0.0000 C   0  0  0  0  0  0  0  0  0  0  0  0
    9.0529   -1.8334    0.0000 C   0  0  0  0  0  0  0  0  0  0  0  0
    9.0529   -2.6927    0.0000 C   0  0  0  0  0  0  0  0  0  0  0  0
 16  1  1  6  0  0  0
  2 27  1  0  0  0  0
  3 29  2  0  0  0  0
  4  6  1  0  0  0  0
  4 13  1  0  0  0  0
  5 24  1  0  0  0  0
  5 29  1  0  0  0  0
  6  7  1  0  0  0  0
  6  8  1  0  0  0  0
  7  9  1  0  0  0  0
  8 10  1  0  0  0  0
  9 10  1  0  0  0  0
  9 11  2  0  0  0  0
 10 12  2  0  0  0  0
 11 14  1  0  0  0  0
 12 15  1  0  0  0  0
 13 16  1  0  0  0  0
 14 15  2  0  0  0  0
 14 17  1  0  0  0  0
 15 18  1  0  0  0  0
 16 19  1  0  0  0  0
 17 21  1  0  0  0  0
 18 22  1  0  0  0  0
 19 20  2  0  0  0  0
 19 23  1  0  0  0  0
 20 24  1  0  0  0  0
 20 26  1  0  0  0  0
 23 25  2  0  0  0  0
 24 27  2  0  0  0  0
 25 27  1  0  0  0  0
 26 28  2  0  0  0  0
 28 29  1  0  0  0  0
M  END
> <DRUGBANK_ID>
DB05039

> <DRUG_GROUPS>
approved

> <GENERIC_NAME>
Indacaterol

> <SYNONYMS>


> <SALTS>
Indacaterol Maleate

> <BRANDS>
Arcapta ; Hirobriz; Onbrez; Onbrize 

> <CHEMICAL_FORMULA>
C24H28N2O3

> <MOLECULAR_WEIGHT>
392.4907

> <EXACT_MASS>
392.209992772

> <IUPAC_NAME>
5-[(1R)-2-[(5,6-diethyl-2,3-dihydro-1H-inden-2-yl)amino]-1-hydroxyethyl]-8-hydroxy-1,2-dihydroquinolin-2-one

> <IUPAC_TRADITIONAL_NAME>
indacaterol

> <INCHI_IDENTIFIER>
InChI=1S/C24H28N2O3/c1-3-14-9-16-11-18(12-17(16)10-15(14)4-2)25-13-22(28)19-5-7-21(27)24-20(19)6-8-23(29)26-24/h5-10,18,22,25,27-28H,3-4,11-13H2,1-2H3,(H,26,29)/t22-/m0/s1

> <INCHI_KEY>
InChIKey=QZZUEBNBZAPZLX-QFIPXVFZSA-N

> <SMILES>
CCC1=C(CC)C=C2CC(CC2=C1)NC[C@H](O)C1=C2C=CC(=O)NC2=C(O)C=C1

> <JCHEM_ACCEPTOR_COUNT>
4

> <JCHEM_DONOR_COUNT>
4

> <JCHEM_ACIDIC_PKA>
8.51

> <JCHEM_BASIC_PKA>
9.71

> <JCHEM_PHYSIOLOGICAL_CHARGE>
1

> <ALOGPS_LOGP>
3.31

> <JCHEM_LOGP>
3.26

> <ALOGPS_LOGS>
-4.7

> <JCHEM_POLARIZABILITY>
44.96

> <JCHEM_POLAR_SURFACE_AREA>
81.59

> <JCHEM_REFRACTIVITY>
118.1

> <JCHEM_ROTATABLE_BOND_COUNT>
6

> <ALOGPS_SOLUBILITY>
7.98e-03 g/l __ 

$$$$
