
  Mrv0541 02231218072D          

 19 21  0  0  0  0            999 V2000
    3.2124   -0.6617    0.0000 C   0  0  0  0  0  0  0  0  0  0  0  0
    1.0690   -0.2492    0.0000 C   0  0  0  0  0  0  0  0  0  0  0  0
    1.7835   -0.6617    0.0000 C   0  0  0  0  0  0  0  0  0  0  0  0
    2.4980   -0.2492    0.0000 C   0  0  0  0  0  0  0  0  0  0  0  0
    2.4980    0.5758    0.0000 C   0  0  0  0  0  0  0  0  0  0  0  0
    1.7835    0.9883    0.0000 C   0  0  0  0  0  0  0  0  0  0  0  0
    1.0690    0.5758    0.0000 C   0  0  0  0  0  0  0  0  0  0  0  0
    3.2124   -1.4867    0.0000 N   0  0  0  0  0  0  0  0  0  0  0  0
   -1.7889    0.5758    0.0000 C   0  0  0  0  0  0  0  0  0  0  0  0
   -1.7889   -0.2492    0.0000 C   0  0  0  0  0  0  0  0  0  0  0  0
   -1.0744   -0.6617    0.0000 C   0  0  0  0  0  0  0  0  0  0  0  0
   -0.3599   -0.2492    0.0000 C   0  0  0  0  0  0  0  0  0  0  0  0
   -0.3599    0.5758    0.0000 C   0  0  0  0  0  0  0  0  0  0  0  0
   -1.0744    0.9883    0.0000 C   0  0  0  0  0  0  0  0  0  0  0  0
    0.3545    0.9883    0.0000 O   0  0  0  0  0  0  0  0  0  0  0  0
   -2.5735    0.8307    0.0000 C   0  0  0  0  0  0  0  0  0  0  0  0
   -3.0584    0.1633    0.0000 O   0  0  0  0  0  0  0  0  0  0  0  0
   -2.5735   -0.5042    0.0000 B   0  0  0  0  0  0  0  0  0  0  0  0
   -2.8284   -1.2888    0.0000 O   0  0  0  0  0  0  0  0  0  0  0  0
  2  3  1  0  0  0  0
  2  7  2  0  0  0  0
  3  4  2  0  0  0  0
  4  5  1  0  0  0  0
  5  6  2  0  0  0  0
  6  7  1  0  0  0  0
  1  4  1  0  0  0  0
  1  8  1  0  0  0  0
  9 10  1  0  0  0  0
  9 14  2  0  0  0  0
 10 11  2  0  0  0  0
 11 12  1  0  0  0  0
 12 13  2  0  0  0  0
 13 14  1  0  0  0  0
  7 15  1  0  0  0  0
 15 13  1  0  0  0  0
  9 16  1  0  0  0  0
 16 17  1  0  0  0  0
 10 18  1  0  0  0  0
 18 19  1  0  0  0  0
 18 17  1  0  0  0  0
M  END
> <DRUGBANK_ID>
DB05219

> <DRUG_GROUPS>
investigational

> <GENERIC_NAME>
AN2728

> <CHEMICAL_FORMULA>
C14H14BNO3

> <MOLECULAR_WEIGHT>
255.077

> <EXACT_MASS>
255.106673785

> <IUPAC_NAME>
5-[4-(aminomethyl)phenoxy]-1,3-dihydro-2,1-benzoxaborol-1-ol

> <IUPAC_TRADITIONAL_NAME>
5-[4-(aminomethyl)phenoxy]-3H-2,1-benzoxaborol-1-ol

> <INCHI_IDENTIFIER>
InChI=1S/C14H14BNO3/c16-8-10-1-3-12(4-2-10)19-13-5-6-14-11(7-13)9-18-15(14)17/h1-7,17H,8-9,16H2

> <INCHI_KEY>
InChIKey=USQKBFNKMYRGGS-UHFFFAOYSA-N

> <SMILES>
NCC1=CC=C(OC2=CC=C3B(O)OCC3=C2)C=C1

> <JCHEM_ACCEPTOR_COUNT>
3

> <JCHEM_DONOR_COUNT>
2

> <JCHEM_ACIDIC_PKA>
8.84

> <JCHEM_BASIC_PKA>
9.59

> <JCHEM_PHYSIOLOGICAL_CHARGE>
1

> <ALOGPS_LOGP>
2

> <JCHEM_LOGP>
1.79

> <ALOGPS_LOGS>
-3.4

> <JCHEM_POLARIZABILITY>
27.33

> <JCHEM_POLAR_SURFACE_AREA>
64.71

> <JCHEM_REFRACTIVITY>
68.35

> <JCHEM_ROTATABLE_BOND_COUNT>
3

> <ALOGPS_SOLUBILITY>
9.99e-02 g/l __ 

$$$$
