
  Mrv0541 02231218072D          

 27 29  0  0  0  0            999 V2000
   -3.0312    2.1375    0.0000 C   0  0  0  0  0  0  0  0  0  0  0  0
   -3.7457    1.7250    0.0000 C   0  0  0  0  0  0  0  0  0  0  0  0
   -3.0312    2.9625    0.0000 C   0  0  0  0  0  0  0  0  0  0  0  0
   -3.0312    3.7875    0.0000 F   0  0  0  0  0  0  0  0  0  0  0  0
   -2.2062    2.9625    0.0000 F   0  0  0  0  0  0  0  0  0  0  0  0
   -3.8562    2.9625    0.0000 F   0  0  0  0  0  0  0  0  0  0  0  0
   -3.0312    0.4875    0.0000 N   0  0  0  0  0  0  0  0  0  0  0  0
   -3.7457    0.9000    0.0000 C   0  0  0  0  0  0  0  0  0  0  0  0
   -4.4602    0.4875    0.0000 O   0  0  0  0  0  0  0  0  0  0  0  0
   -2.3168    1.7250    0.0000 C   0  0  0  0  0  0  0  0  0  0  0  0
   -2.3168    0.9000    0.0000 C   0  0  0  0  0  0  0  0  0  0  0  0
   -1.6023    2.1375    0.0000 C   0  0  0  0  0  0  0  0  0  0  0  0
   -1.6023    0.4875    0.0000 C   0  0  0  0  0  0  0  0  0  0  0  0
   -0.8879    0.9000    0.0000 C   0  0  0  0  0  0  0  0  0  0  0  0
   -0.8879    1.7250    0.0000 C   0  0  0  0  0  0  0  0  0  0  0  0
    0.7326    3.1178    0.0000 C   0  0  0  0  0  0  0  0  0  0  0  0
   -0.0765    2.9567    0.0000 C   0  0  2  0  0  0  0  0  0  0  0  0
    0.5759    1.7922    0.0000 C   0  0  1  0  0  0  0  0  0  0  0  0
    1.1358    2.3980    0.0000 C   0  0  0  0  0  0  0  0  0  0  0  0
   -0.1734    2.1375    0.0000 N   0  0  0  0  0  0  0  0  0  0  0  0
   -0.6824    3.5166    0.0000 C   0  0  0  0  0  0  0  0  0  0  0  0
    0.7369    0.9830    0.0000 C   0  0  2  0  0  0  0  0  0  0  0  0
    1.5181    0.7178    0.0000 C   0  0  0  0  0  0  0  0  0  0  0  0
    2.1384    1.2617    0.0000 F   0  0  0  0  0  0  0  0  0  0  0  0
    2.2993    0.4526    0.0000 F   0  0  0  0  0  0  0  0  0  0  0  0
    1.6790   -0.0914    0.0000 F   0  0  0  0  0  0  0  0  0  0  0  0
    0.1166    0.4390    0.0000 O   0  0  0  0  0  0  0  0  0  0  0  0
  1  2  2  0  0  0  0
  1 10  1  0  0  0  0
  2  8  1  0  0  0  0
  8  7  1  0  0  0  0
  7 11  1  0  0  0  0
  1  3  1  0  0  0  0
  3  4  1  0  0  0  0
  3  6  1  0  0  0  0
  3  5  1  0  0  0  0
  8  9  2  0  0  0  0
 12 10  1  0  0  0  0
 10 11  2  0  0  0  0
 11 13  1  0  0  0  0
 12 15  2  0  0  0  0
 13 14  2  0  0  0  0
 14 15  1  0  0  0  0
 15 20  1  0  0  0  0
 17 20  1  0  0  0  0
 18 20  1  6  0  0  0
 16 17  1  0  0  0  0
 16 19  1  0  0  0  0
 18 19  1  0  0  0  0
 22 18  1  0  0  0  0
 17 21  1  6  0  0  0
 22 23  1  0  0  0  0
 23 26  1  0  0  0  0
 23 24  1  0  0  0  0
 23 25  1  0  0  0  0
 22 27  1  6  0  0  0
M  END
> <DRUGBANK_ID>
DB05234

> <DRUG_GROUPS>
investigational

> <GENERIC_NAME>
LGD2941

> <CHEMICAL_FORMULA>
C17H16F6N2O2

> <MOLECULAR_WEIGHT>
394.3116

> <EXACT_MASS>
394.111596996

> <IUPAC_NAME>
6-[(2R,5R)-2-methyl-5-[(1R)-2,2,2-trifluoro-1-hydroxyethyl]pyrrolidin-1-yl]-4-(trifluoromethyl)-1,2-dihydroquinolin-2-one

> <IUPAC_TRADITIONAL_NAME>
6-[(2R,5R)-2-methyl-5-[(1R)-2,2,2-trifluoro-1-hydroxyethyl]pyrrolidin-1-yl]-4-(trifluoromethyl)-1H-quinolin-2-one

> <INCHI_IDENTIFIER>
InChI=1S/C17H16F6N2O2/c1-8-2-5-13(15(27)17(21,22)23)25(8)9-3-4-12-10(6-9)11(16(18,19)20)7-14(26)24-12/h3-4,6-8,13,15,27H,2,5H2,1H3,(H,24,26)/t8-,13-,15-/m1/s1

> <INCHI_KEY>
InChIKey=HWLLYFXDDGGHOE-BCSUUIJWSA-N

> <SMILES>
C[C@@H]1CC[C@H]([C@@H](O)C(F)(F)F)N1C1=CC2=C(NC(=O)C=C2C(F)(F)F)C=C1

> <JCHEM_ACCEPTOR_COUNT>
3

> <JCHEM_DONOR_COUNT>
2

> <JCHEM_ACIDIC_PKA>
10.91

> <JCHEM_BASIC_PKA>
0.46

> <JCHEM_PHYSIOLOGICAL_CHARGE>
0

> <ALOGPS_LOGP>
4.29

> <JCHEM_LOGP>
3.58

> <ALOGPS_LOGS>
-4.1

> <JCHEM_POLARIZABILITY>
32.59

> <JCHEM_POLAR_SURFACE_AREA>
52.57

> <JCHEM_REFRACTIVITY>
87.96

> <JCHEM_ROTATABLE_BOND_COUNT>
4

> <ALOGPS_SOLUBILITY>
3.44e-02 g/l __ 

$$$$
