
  Mrv0541 02231218132D          

 24 25  0  0  0  0            999 V2000
    0.0000    3.2431    0.0000 Cl   0  0  0  0  0  0  0  0  0  0  0  0
    5.1362    0.0000    0.0000 Cl   0  0  0  0  0  0  0  0  0  0  0  0
    3.9757    6.9017    0.0000 O    0  0  0  0  0  0  0  0  0  0  0  0
    4.8166    5.4016    0.0000 N    0  0  0  0  0  0  0  0  0  0  0  0
    5.7435    2.5893    0.0000 N    0  0  0  0  0  0  0  0  0  0  0  0
    4.2951    4.1785    0.0000 N    0  0  0  0  0  0  0  0  0  0  0  0
    2.7504    6.1667    0.0000 N    0  0  0  0  0  0  0  0  0  0  0  0
    5.7435    4.2393    0.0000 C    0  0  0  0  0  0  0  0  0  0  0  0
    5.0290    3.8268    0.0000 C    0  0  0  0  0  0  0  0  0  0  0  0
    6.4580    3.8268    0.0000 C    0  0  0  0  0  0  0  0  0  0  0  0
    6.4868    4.5972    0.0000 C    0  0  0  0  0  0  0  0  0  0  0  0
    5.0003    4.5972    0.0000 C    0  0  0  0  0  0  0  0  0  0  0  0
    5.0290    3.0018    0.0000 C    0  0  0  0  0  0  0  0  0  0  0  0
    6.4580    3.0018    0.0000 C    0  0  0  0  0  0  0  0  0  0  0  0
    6.6704    5.4016    0.0000 C    0  0  0  0  0  0  0  0  0  0  0  0
    5.3310    6.0466    0.0000 C    0  0  0  0  0  0  0  0  0  0  0  0
    6.1560    6.0466    0.0000 C    0  0  0  0  0  0  0  0  0  0  0  0
    7.1077    4.0031    0.0000 C    0  0  0  0  0  0  0  0  0  0  0  0
    3.9996    5.4730    0.0000 C    0  0  0  0  0  0  0  0  0  0  0  0
    7.4876    5.6675    0.0000 C    0  0  0  0  0  0  0  0  0  0  0  0
    3.6779    4.7186    0.0000 C    0  0  0  0  0  0  0  0  0  0  0  0
    7.9308    4.2501    0.0000 C    0  0  0  0  0  0  0  0  0  0  0  0
    8.1220    5.0879    0.0000 C    0  0  0  0  0  0  0  0  0  0  0  0
    3.5752    6.1805    0.0000 C    0  0  0  0  0  0  0  0  0  0  0  0
  3 24  2  0  0  0  0
  4 12  1  0  0  0  0
  4 16  1  0  0  0  0
  4 19  1  0  0  0  0
  5 13  1  0  0  0  0
  5 14  1  0  0  0  0
  6 12  2  0  0  0  0
  6 21  1  0  0  0  0
  7 24  1  0  0  0  0
  8  9  1  0  0  0  0
  8 10  1  0  0  0  0
  8 11  1  0  0  0  0
  8 12  1  0  0  0  0
  9 13  1  0  0  0  0
 10 14  1  0  0  0  0
 11 15  1  0  0  0  0
 11 18  2  0  0  0  0
 15 17  1  0  0  0  0
 15 20  2  0  0  0  0
 16 17  1  0  0  0  0
 18 22  1  0  0  0  0
 19 21  2  0  0  0  0
 19 24  1  0  0  0  0
 20 23  1  0  0  0  0
 22 23  2  0  0  0  0
M  END
> <DRUGBANK_ID>
DB05738

> <DRUG_GROUPS>
investigational

> <GENERIC_NAME>
vapitadine dihydrochloride

> <BRANDS>


> <CHEMICAL_FORMULA>
C17H22Cl2N4O

> <MOLECULAR_WEIGHT>
369.289

> <EXACT_MASS>
368.11706676

> <IUPAC_NAME>
4',7'-diazaspiro[piperidine-4,2'-tricyclo[8.4.0.0^{3,7}]tetradecane]-1'(10'),3',5',11',13'-pentaene-6'-carboxamide dihydrochloride

> <IUPAC_TRADITIONAL_NAME>
4',7'-diazaspiro[piperidine-4,2'-tricyclo[8.4.0.0^{3,7}]tetradecane]-1'(10'),3',5',11',13'-pentaene-6'-carboxamide dihydrochloride

> <INCHI_IDENTIFIER>
InChI=1S/C17H20N4O.2ClH/c18-15(22)14-11-20-16-17(6-8-19-9-7-17)13-4-2-1-3-12(13)5-10-21(14)16;;/h1-4,11,19H,5-10H2,(H2,18,22);2*1H

> <INCHI_KEY>
InChIKey=BOYLPLUVCXUHDJ-UHFFFAOYSA-N

> <SMILES>
Cl.Cl.NC(=O)C1=CN=C2N1CCC1=CC=CC=C1C21CCNCC1

> <JCHEM_ACCEPTOR_COUNT>
3

> <JCHEM_DONOR_COUNT>
2

> <JCHEM_ACIDIC_PKA>
14.11

> <JCHEM_BASIC_PKA>
9.98

> <JCHEM_PHYSIOLOGICAL_CHARGE>
1

> <JCHEM_LOGP>
0.81

> <JCHEM_POLARIZABILITY>
32.39

> <JCHEM_POLAR_SURFACE_AREA>
72.94

> <JCHEM_REFRACTIVITY>
96.14

> <JCHEM_ROTATABLE_BOND_COUNT>
1 __ 

$$$$
