
  Mrv0541 02231218132D          

 18 20  0  0  1  0            999 V2000
    6.3709   -0.8559    0.0000 O   0  0  0  0  0  0  0  0  0  0  0  0
    6.2603    0.3817    0.0000 O   0  0  0  0  0  0  0  0  0  0  0  0
    2.1506    0.9634    0.0000 O   0  0  0  0  0  0  0  0  0  0  0  0
    4.8314   -1.2684    0.0000 C   0  0  0  0  0  0  0  0  0  0  0  0
    5.2439   -1.9829    0.0000 C   0  0  0  0  0  0  0  0  0  0  0  0
    4.4189   -1.9829    0.0000 C   0  0  0  0  0  0  0  0  0  0  0  0
    5.5459   -0.8559    0.0000 C   0  0  2  0  0  0  0  0  0  0  0  0
    4.1168   -0.8559    0.0000 C   0  0  0  0  0  0  0  0  0  0  0  0
    4.1168   -0.0309    0.0000 C   0  0  0  0  0  0  0  0  0  0  0  0
    5.5459   -0.0309    0.0000 C   0  0  0  0  0  0  0  0  0  0  0  0
    5.9584   -1.5704    0.0000 C   0  0  0  0  0  0  0  0  0  0  0  0
    4.8314    0.3817    0.0000 C   0  0  0  0  0  0  0  0  0  0  0  0
    3.4024   -1.2684    0.0000 C   0  0  0  0  0  0  0  0  0  0  0  0
    3.5088    0.5194    0.0000 C   0  0  0  0  0  0  0  0  0  0  0  0
    4.6588    1.1834    0.0000 C   0  0  0  0  0  0  0  0  0  0  0  0
    3.8430    1.2684    0.0000 C   0  0  0  0  0  0  0  0  0  0  0  0
    2.7015    0.3493    0.0000 C   0  0  0  0  0  0  0  0  0  0  0  0
    3.4305    1.9829    0.0000 C   0  0  0  0  0  0  0  0  0  0  0  0
  7  1  1  6  0  0  0
  2 10  2  0  0  0  0
  3 17  1  0  0  0  0
  4  5  1  0  0  0  0
  4  6  1  0  0  0  0
  4  7  1  0  0  0  0
  4  8  1  0  0  0  0
  5  6  1  0  0  0  0
  7 10  1  0  0  0  0
  7 11  1  0  0  0  0
  8  9  2  0  0  0  0
  8 13  1  0  0  0  0
  9 12  1  0  0  0  0
  9 14  1  0  0  0  0
 10 12  1  0  0  0  0
 12 15  2  0  0  0  0
 14 16  2  0  0  0  0
 14 17  1  0  0  0  0
 15 16  1  0  0  0  0
 16 18  1  0  0  0  0
M  END
> <DRUGBANK_ID>
DB05786

> <DRUG_GROUPS>
investigational

> <GENERIC_NAME>
MGI-114

> <BRANDS>


> <CHEMICAL_FORMULA>
C15H18O3

> <MOLECULAR_WEIGHT>
246.3016

> <EXACT_MASS>
246.125594442

> <IUPAC_NAME>
(6'R)-6'-hydroxy-3'-(hydroxymethyl)-2',4',6'-trimethyl-6',7'-dihydrospiro[cyclopropane-1,5'-indene]-7'-one

> <IUPAC_TRADITIONAL_NAME>
irofulven

> <INCHI_IDENTIFIER>
InChI=1S/C15H18O3/c1-8-6-10-12(11(8)7-16)9(2)15(4-5-15)14(3,18)13(10)17/h6,16,18H,4-5,7H2,1-3H3/t14-/m0/s1

> <INCHI_KEY>
InChIKey=NICJCIQSJJKZAH-AWEZNQCLSA-N

> <SMILES>
CC1=C(CO)C2=C(C)C3(CC3)[C@@](C)(O)C(=O)C2=C1

> <JCHEM_ACCEPTOR_COUNT>
3

> <JCHEM_DONOR_COUNT>
2

> <JCHEM_ACIDIC_PKA>
12.77

> <JCHEM_BASIC_PKA>
-1.7

> <JCHEM_PHYSIOLOGICAL_CHARGE>
0

> <ALOGPS_LOGP>
1.19

> <JCHEM_LOGP>
0.67

> <ALOGPS_LOGS>
-2.7

> <JCHEM_POLARIZABILITY>
27.33

> <JCHEM_POLAR_SURFACE_AREA>
57.53

> <JCHEM_REFRACTIVITY>
70.91

> <JCHEM_ROTATABLE_BOND_COUNT>
1

> <ALOGPS_SOLUBILITY>
5.20e-01 g/l __ 

$$$$
