
  Mrv0541 02231218062D          

 23 22  0  0  0  0            999 V2000
    1.6500    2.5246    0.0000 O   0  0  0  0  0  0  0  0  0  0  0  0
    3.0791    2.5246    0.0000 O   0  0  0  0  0  0  0  0  0  0  0  0
    3.0791    0.8745    0.0000 C   0  0  0  0  0  0  0  0  0  0  0  0
    3.0791    0.0495    0.0000 C   0  0  0  0  0  0  0  0  0  0  0  0
    2.3645    1.2870    0.0000 C   0  0  0  0  0  0  0  0  0  0  0  0
    2.3645   -0.3630    0.0000 C   0  0  0  0  0  0  0  0  0  0  0  0
    2.3645   -1.1880    0.0000 C   0  0  0  0  0  0  0  0  0  0  0  0
    3.0791   -1.6005    0.0000 C   0  0  0  0  0  0  0  0  0  0  0  0
    2.3645    2.1120    0.0000 C   0  0  0  0  0  0  0  0  0  0  0  0
    3.0791   -2.4256    0.0000 C   0  0  0  0  0  0  0  0  0  0  0  0
    4.5080   -2.4256    0.0000 C   0  0  0  0  0  0  0  0  0  0  0  0
    3.7935   -2.8381    0.0000 C   0  0  0  0  0  0  0  0  0  0  0  0
    5.9370   -1.6005    0.0000 C   0  0  0  0  0  0  0  0  0  0  0  0
    5.2224   -2.8381    0.0000 C   0  0  0  0  0  0  0  0  0  0  0  0
    5.9370   -2.4256    0.0000 C   0  0  0  0  0  0  0  0  0  0  0  0
    5.9370    0.0495    0.0000 C   0  0  0  0  0  0  0  0  0  0  0  0
    6.6515   -1.1880    0.0000 C   0  0  0  0  0  0  0  0  0  0  0  0
    6.6515   -0.3630    0.0000 C   0  0  0  0  0  0  0  0  0  0  0  0
    5.9370    0.8745    0.0000 C   0  0  0  0  0  0  0  0  0  0  0  0
    4.5080    0.8745    0.0000 C   0  0  0  0  0  0  0  0  0  0  0  0
    5.2224    1.2870    0.0000 C   0  0  0  0  0  0  0  0  0  0  0  0
    3.7935    1.2870    0.0000 C   0  0  0  0  0  0  0  0  0  0  0  0
    1.6500    3.3496    0.0000 C   0  0  0  0  0  0  0  0  0  0  0  0
  1  9  1  0  0  0  0
  1 23  1  0  0  0  0
  2  9  2  0  0  0  0
  3  4  1  0  0  0  0
  3  5  1  0  0  0  0
  4  6  1  0  0  0  0
  5  9  1  0  0  0  0
  6  7  2  0  0  0  0
  7  8  1  0  0  0  0
  8 10  1  0  0  0  0
 10 12  2  0  0  0  0
 11 12  1  0  0  0  0
 11 14  1  0  0  0  0
 13 15  1  0  0  0  0
 13 17  1  0  0  0  0
 14 15  2  0  0  0  0
 16 18  1  0  0  0  0
 16 19  1  0  0  0  0
 17 18  2  0  0  0  0
 19 21  2  0  0  0  0
 20 21  1  0  0  0  0
 20 22  1  0  0  0  0
M  END
> <DRUGBANK_ID>
DB05171

> <DRUG_GROUPS>
investigational

> <GENERIC_NAME>
E2012

> <CHEMICAL_FORMULA>
C21H32O2

> <MOLECULAR_WEIGHT>
316.4776

> <EXACT_MASS>
316.240230268

> <IUPAC_NAME>
methyl (5Z,8Z,11Z,14Z,17Z)-icosa-5,8,11,14,17-pentaenoate

> <IUPAC_TRADITIONAL_NAME>
methyl (5Z,8Z,11Z,14Z,17Z)-icosa-5,8,11,14,17-pentaenoate

> <INCHI_IDENTIFIER>
InChI=1S/C21H32O2/c1-3-4-5-6-7-8-9-10-11-12-13-14-15-16-17-18-19-20-21(22)23-2/h4-5,7-8,10-11,13-14,16-17H,3,6,9,12,15,18-20H2,1-2H3/b5-4-,8-7-,11-10-,14-13-,17-16-

> <INCHI_KEY>
InChIKey=QWDCYFDDFPWISL-JEBPEJKESA-N

> <SMILES>
CC\C=C/C\C=C/C\C=C/C\C=C/C\C=C/CCCC(=O)OC

> <JCHEM_ACCEPTOR_COUNT>
1

> <JCHEM_DONOR_COUNT>
0

> <JCHEM_BASIC_PKA>
-7

> <JCHEM_PHYSIOLOGICAL_CHARGE>
0

> <ALOGPS_LOGP>
6.51

> <JCHEM_LOGP>
6.37

> <ALOGPS_LOGS>
-6.4

> <JCHEM_POLARIZABILITY>
38.38

> <JCHEM_POLAR_SURFACE_AREA>
26.3

> <JCHEM_REFRACTIVITY>
105.84

> <JCHEM_ROTATABLE_BOND_COUNT>
14

> <ALOGPS_SOLUBILITY>
1.16e-04 g/l __ 

$$$$
