
  Mrv0541 02231218052D          

 48 52  0  0  1  0            999 V2000
    6.6504    3.5949    0.0000 Cl   0  0  0  0  0  0  0  0  0  0  0  0
    3.7927    3.6279    0.0000 Cl   0  0  0  0  0  0  0  0  0  0  0  0
    6.6314    1.9450    0.0000 S    0  0  0  0  0  0  0  0  0  0  0  0
    7.0521    2.6546    0.0000 O    0  0  0  0  0  0  0  0  0  0  0  0
    6.2106    1.2353    0.0000 O    0  0  0  0  0  0  0  0  0  0  0  0
    6.0167    0.4219    0.0000 O    0  0  0  0  0  0  0  0  0  0  0  0
    4.5215    4.8571    0.0000 O    0  0  0  0  0  0  0  0  0  0  0  0
    4.6449   -3.6396    0.0000 O    0  0  0  0  0  0  0  0  0  0  0  0
    7.3411    1.5242    0.0000 N    0  0  0  0  0  0  0  0  0  0  0  0
    6.9605   -0.6510    0.0000 N    0  0  0  0  0  0  0  0  0  0  0  0
    6.0460   -3.3587    0.0000 N    0  0  0  0  0  0  0  0  0  0  0  0
    3.0790    5.7107    0.0000 N    0  0  0  0  0  0  0  0  0  0  0  0
    5.4558   -7.6842    0.0000 N    0  0  0  0  0  0  0  0  0  0  0  0
    6.8569   -7.4033    0.0000 N    0  0  0  0  0  0  0  0  0  0  0  0
    7.4178    0.7028    0.0000 C    0  0  0  0  0  0  0  0  0  0  0  0
    8.2227    0.5220    0.0000 C    0  0  0  0  0  0  0  0  0  0  0  0
    8.6435    1.2316    0.0000 C    0  0  0  0  0  0  0  0  0  0  0  0
    8.0986    1.8511    0.0000 C    0  0  0  0  0  0  0  0  0  0  0  0
    6.7984    0.1579    0.0000 C    0  0  0  0  0  0  0  0  0  0  0  0
    5.9217    2.3657    0.0000 C    0  0  0  0  0  0  0  0  0  0  0  0
    6.3411   -1.1959    0.0000 C    0  0  0  0  0  0  0  0  0  0  0  0
    5.9313    3.1907    0.0000 C    0  0  0  0  0  0  0  0  0  0  0  0
    5.2025    1.9615    0.0000 C    0  0  0  0  0  0  0  0  0  0  0  0
    6.5033   -2.0049    0.0000 C    0  0  0  0  0  0  0  0  0  0  0  0
    5.2216    3.6114    0.0000 C    0  0  0  0  0  0  0  0  0  0  0  0
    4.4929    2.3822    0.0000 C    0  0  0  0  0  0  0  0  0  0  0  0
    4.5023    3.2072    0.0000 C    0  0  0  0  0  0  0  0  0  0  0  0
    5.8838   -2.5498    0.0000 C    0  0  0  0  0  0  0  0  0  0  0  0
    5.2311    4.4363    0.0000 C    0  0  0  0  0  0  0  0  0  0  0  0
    4.5310    5.6820    0.0000 C    0  0  0  0  0  0  0  0  0  0  0  0
    5.4265   -3.9036    0.0000 C    0  0  0  0  0  0  0  0  0  0  0  0
    3.7935    6.1232    0.0000 C    0  0  0  0  0  0  0  0  0  0  0  0
    3.7935    6.9482    0.0000 C    0  0  0  0  0  0  0  0  0  0  0  0
    5.2785    6.1060    0.0000 C    0  0  0  0  0  0  0  0  0  0  0  0
    5.5887   -4.7126    0.0000 C    0  0  0  0  0  0  0  0  0  0  0  0
    3.0790    7.3607    0.0000 C    0  0  0  0  0  0  0  0  0  0  0  0
    4.5310    7.3893    0.0000 C    0  0  0  0  0  0  0  0  0  0  0  0
    5.2785    6.9653    0.0000 C    0  0  0  0  0  0  0  0  0  0  0  0
    2.3645    6.1232    0.0000 C    0  0  0  0  0  0  0  0  0  0  0  0
    2.3645    6.9482    0.0000 C    0  0  0  0  0  0  0  0  0  0  0  0
    3.0790    8.1857    0.0000 C    0  0  0  0  0  0  0  0  0  0  0  0
    6.3703   -4.9765    0.0000 C    0  0  0  0  0  0  0  0  0  0  0  0
    4.9693   -5.2574    0.0000 C    0  0  0  0  0  0  0  0  0  0  0  0
    1.6500    5.7107    0.0000 C    0  0  0  0  0  0  0  0  0  0  0  0
    6.5325   -5.7854    0.0000 C    0  0  0  0  0  0  0  0  0  0  0  0
    5.1315   -6.0663    0.0000 C    0  0  0  0  0  0  0  0  0  0  0  0
    5.9131   -6.3303    0.0000 C    0  0  0  0  0  0  0  0  0  0  0  0
    6.0753   -7.1393    0.0000 C    0  0  0  0  0  0  0  0  0  0  0  0
  1 22  1  0  0  0  0
  2 27  1  0  0  0  0
  3  4  2  0  0  0  0
  3  5  2  0  0  0  0
  3  9  1  0  0  0  0
  3 20  1  0  0  0  0
  6 19  2  0  0  0  0
  7 29  1  0  0  0  0
  7 30  1  0  0  0  0
  8 31  2  0  0  0  0
  9 15  1  0  0  0  0
  9 18  1  0  0  0  0
 10 19  1  0  0  0  0
 10 21  1  0  0  0  0
 11 28  1  0  0  0  0
 11 31  1  0  0  0  0
 12 32  1  0  0  0  0
 12 39  2  0  0  0  0
 13 48  1  0  0  0  0
 14 48  2  0  0  0  0
 15 16  1  0  0  0  0
 15 19  1  0  0  0  0
 16 17  1  0  0  0  0
 17 18  1  0  0  0  0
 20 22  2  0  0  0  0
 20 23  1  0  0  0  0
 21 24  1  0  0  0  0
 22 25  1  0  0  0  0
 23 26  2  0  0  0  0
 24 28  1  0  0  0  0
 25 27  2  0  0  0  0
 25 29  1  0  0  0  0
 26 27  1  0  0  0  0
 30 32  1  0  0  0  0
 30 34  2  0  0  0  0
 31 35  1  0  0  0  0
 32 33  2  0  0  0  0
 33 36  1  0  0  0  0
 33 37  1  0  0  0  0
 34 38  1  0  0  0  0
 35 42  2  0  0  0  0
 35 43  1  0  0  0  0
 36 40  2  0  0  0  0
 36 41  1  0  0  0  0
 37 38  2  0  0  0  0
 39 40  1  0  0  0  0
 39 44  1  0  0  0  0
 42 45  1  0  0  0  0
 43 46  2  0  0  0  0
 45 47  2  0  0  0  0
 46 47  1  0  0  0  0
 47 48  1  0  0  0  0
M  END
> <DRUGBANK_ID>
DB05038

> <DRUG_GROUPS>
investigational

> <GENERIC_NAME>
Anatibant

> <SYNONYMS>


> <CHEMICAL_FORMULA>
C34H36Cl2N6O5S

> <MOLECULAR_WEIGHT>
711.658

> <EXACT_MASS>
710.184494396

> <IUPAC_NAME>
N-{3-[(4-carbamimidoylphenyl)formamido]propyl}-1-[(2,4-dichloro-3-{[(2,4-dimethylquinolin-8-yl)oxy]methyl}benzene)sulfonyl]pyrrolidine-2-carboxamide

> <IUPAC_TRADITIONAL_NAME>
N-{3-[(4-carbamimidoylphenyl)formamido]propyl}-1-(2,4-dichloro-3-{[(2,4-dimethylquinolin-8-yl)oxy]methyl}benzenesulfonyl)pyrrolidine-2-carboxamide

> <INCHI_IDENTIFIER>
InChI=1S/C34H36Cl2N6O5S/c1-20-18-21(2)41-31-24(20)6-3-8-28(31)47-19-25-26(35)13-14-29(30(25)36)48(45,46)42-17-4-7-27(42)34(44)40-16-5-15-39-33(43)23-11-9-22(10-12-23)32(37)38/h3,6,8-14,18,27H,4-5,7,15-17,19H2,1-2H3,(H3,37,38)(H,39,43)(H,40,44)

> <INCHI_KEY>
InChIKey=XUHBBTKJWIBQMY-UHFFFAOYSA-N

> <SMILES>
CC1=NC2=C(C=CC=C2OCC2=C(Cl)C=CC(=C2Cl)S(=O)(=O)N2CCCC2C(=O)NCCCNC(=O)C2=CC=C(C=C2)C(N)=N)C(C)=C1

> <JCHEM_ACCEPTOR_COUNT>
8

> <JCHEM_DONOR_COUNT>
4

> <JCHEM_ACIDIC_PKA>
13.51

> <JCHEM_BASIC_PKA>
10.94

> <JCHEM_PHYSIOLOGICAL_CHARGE>
1

> <ALOGPS_LOGP>
4.7

> <JCHEM_LOGP>
3.97

> <ALOGPS_LOGS>
-6

> <JCHEM_POLARIZABILITY>
75.02

> <JCHEM_POLAR_SURFACE_AREA>
167.57

> <JCHEM_REFRACTIVITY>
196.94

> <JCHEM_ROTATABLE_BOND_COUNT>
11

> <ALOGPS_SOLUBILITY>
6.54e-04 g/l __ 

$$$$
