
  Mrv0541 02231218062D          

 28 30  0  0  1  0            999 V2000
    3.7935    0.3630    0.0000 S   0  0  0  0  0  0  0  0  0  0  0  0
    2.3645    1.1880    0.0000 S   0  0  0  0  0  0  0  0  0  0  0  0
    3.7935    2.8381    0.0000 O   0  0  0  0  0  0  0  0  0  0  0  0
    4.6185    0.3630    0.0000 O   0  0  0  0  0  0  0  0  0  0  0  0
    2.9685    0.3630    0.0000 O   0  0  0  0  0  0  0  0  0  0  0  0
    1.6500    4.0756    0.0000 O   0  0  0  0  0  0  0  0  0  0  0  0
    3.7935   -2.9371    0.0000 O   0  0  0  0  0  0  0  0  0  0  0  0
    3.7935    1.1880    0.0000 N   0  0  0  0  0  0  0  0  0  0  0  0
    2.3645    3.6631    0.0000 N   0  0  0  0  0  0  0  0  0  0  0  0
    5.9370   -4.1746    0.0000 N   0  0  0  0  0  0  0  0  0  0  0  0
    4.5080    1.6005    0.0000 C   0  0  0  0  0  0  0  0  0  0  0  0
    4.5080    2.4256    0.0000 C   0  0  0  0  0  0  0  0  0  0  0  0
    3.0791    2.4256    0.0000 C   0  0  0  0  0  0  0  0  0  0  0  0
    3.0791    1.6005    0.0000 C   0  0  0  0  0  0  0  0  0  0  0  0
    5.2224    1.1880    0.0000 C   0  0  0  0  0  0  0  0  0  0  0  0
    5.2224    2.8381    0.0000 C   0  0  0  0  0  0  0  0  0  0  0  0
    2.3645    2.8381    0.0000 C   0  0  0  0  0  0  0  0  0  0  0  0
    3.7935   -0.4620    0.0000 C   0  0  0  0  0  0  0  0  0  0  0  0
    3.0791   -0.8745    0.0000 C   0  0  0  0  0  0  0  0  0  0  0  0
    4.5080   -0.8745    0.0000 C   0  0  0  0  0  0  0  0  0  0  0  0
    3.0791   -1.6995    0.0000 C   0  0  0  0  0  0  0  0  0  0  0  0
    4.5080   -1.6995    0.0000 C   0  0  0  0  0  0  0  0  0  0  0  0
    3.7935   -2.1120    0.0000 C   0  0  0  0  0  0  0  0  0  0  0  0
    4.5080   -3.3496    0.0000 C   0  0  0  0  0  0  0  0  0  0  0  0
    5.2224   -2.9371    0.0000 C   0  0  0  0  0  0  0  0  0  0  0  0
    4.5080   -4.1746    0.0000 C   0  0  0  0  0  0  0  0  0  0  0  0
    5.9370   -3.3496    0.0000 C   0  0  0  0  0  0  0  0  0  0  0  0
    5.2224   -4.5871    0.0000 C   0  0  0  0  0  0  0  0  0  0  0  0
  1  4  2  0  0  0  0
  1  5  2  0  0  0  0
  1  8  1  0  0  0  0
  1 18  1  0  0  0  0
  2 14  2  0  0  0  0
  3 12  1  0  0  0  0
  3 13  1  0  0  0  0
  6  9  1  0  0  0  0
  7 23  1  0  0  0  0
  7 24  1  0  0  0  0
  8 11  1  0  0  0  0
  8 14  1  0  0  0  0
  9 17  1  0  0  0  0
 10 27  2  0  0  0  0
 10 28  1  0  0  0  0
 11 12  1  0  0  0  0
 11 15  1  0  0  0  0
 12 16  1  0  0  0  0
 13 14  1  0  0  0  0
 13 17  1  0  0  0  0
 18 19  2  0  0  0  0
 18 20  1  0  0  0  0
 19 21  1  0  0  0  0
 20 22  2  0  0  0  0
 21 23  2  0  0  0  0
 22 23  1  0  0  0  0
 24 25  2  0  0  0  0
 24 26  1  0  0  0  0
 25 27  1  0  0  0  0
 26 28  2  0  0  0  0
M  END
> <DRUGBANK_ID>
DB05100

> <DRUG_GROUPS>
investigational

> <GENERIC_NAME>
AG3340

> <SYNONYMS>


> <BRANDS>


> <CHEMICAL_FORMULA>
C18H21N3O5S2

> <MOLECULAR_WEIGHT>
423.506

> <EXACT_MASS>
423.092262177

> <IUPAC_NAME>
2-[(hydroxyamino)methyl]-5,6-dimethyl-4-{[4-(pyridin-4-yloxy)benzene]sulfonyl}morpholine-3-thione

> <IUPAC_TRADITIONAL_NAME>
2-[(hydroxyamino)methyl]-5,6-dimethyl-4-[4-(pyridin-4-yloxy)benzenesulfonyl]morpholine-3-thione

> <INCHI_IDENTIFIER>
InChI=1S/C18H21N3O5S2/c1-12-13(2)25-17(11-20-22)18(27)21(12)28(23,24)16-5-3-14(4-6-16)26-15-7-9-19-10-8-15/h3-10,12-13,17,20,22H,11H2,1-2H3

> <INCHI_KEY>
InChIKey=WRTVMPQUJJYFOB-UHFFFAOYSA-N

> <SMILES>
CC1OC(CNO)C(=S)N(C1C)S(=O)(=O)C1=CC=C(OC2=CC=NC=C2)C=C1

> <JCHEM_ACCEPTOR_COUNT>
6

> <JCHEM_DONOR_COUNT>
2

> <JCHEM_ACIDIC_PKA>
16.02

> <JCHEM_BASIC_PKA>
5.94

> <JCHEM_PHYSIOLOGICAL_CHARGE>
0

> <ALOGPS_LOGP>
1.63

> <JCHEM_LOGP>
1.98

> <ALOGPS_LOGS>
-4.4

> <JCHEM_POLARIZABILITY>
41.56

> <JCHEM_POLAR_SURFACE_AREA>
100.99

> <JCHEM_REFRACTIVITY>
118.03

> <JCHEM_ROTATABLE_BOND_COUNT>
5

> <ALOGPS_SOLUBILITY>
1.84e-02 g/l __ 

$$$$
