
  Mrv0541 02231218132D          

 25 25  0  0  0  0            999 V2000
    6.8837    4.6024    0.0000 Cl   0  0  0  0  0  0  0  0  0  0  0  0
    6.8837    2.5398    0.0000 Cl   0  0  0  0  0  0  0  0  0  0  0  0
    1.1575    3.3305    0.0000 O    0  0  0  0  0  0  0  0  0  0  0  0
    2.5864    0.8555    0.0000 O    0  0  0  0  0  0  0  0  0  0  0  0
    4.0154    5.8056    0.0000 N    0  0  0  0  0  0  0  0  0  0  0  0
    1.1575    5.8056    0.0000 N    0  0  0  0  0  0  0  0  0  0  0  0
    4.0154    4.1555    0.0000 C    0  0  0  0  0  0  0  0  0  0  0  0
    4.7299    4.5680    0.0000 C    0  0  0  0  0  0  0  0  0  0  0  0
    3.3009    4.5680    0.0000 C    0  0  0  0  0  0  0  0  0  0  0  0
    4.7299    5.3931    0.0000 C    0  0  0  0  0  0  0  0  0  0  0  0
    3.3009    5.3931    0.0000 C    0  0  0  0  0  0  0  0  0  0  0  0
    2.5864    4.1555    0.0000 C    0  0  0  0  0  0  0  0  0  0  0  0
    2.5864    5.8056    0.0000 C    0  0  0  0  0  0  0  0  0  0  0  0
    2.5864    3.3305    0.0000 C    0  0  0  0  0  0  0  0  0  0  0  0
    1.8720    2.9180    0.0000 C    0  0  0  0  0  0  0  0  0  0  0  0
    3.3009    2.9180    0.0000 C    0  0  0  0  0  0  0  0  0  0  0  0
    2.5864    6.6306    0.0000 C    0  0  0  0  0  0  0  0  0  0  0  0
    1.8720    5.3931    0.0000 C    0  0  0  0  0  0  0  0  0  0  0  0
    1.8720    2.0930    0.0000 C    0  0  0  0  0  0  0  0  0  0  0  0
    3.3009    2.0930    0.0000 C    0  0  0  0  0  0  0  0  0  0  0  0
    2.5864    1.6805    0.0000 C    0  0  0  0  0  0  0  0  0  0  0  0
    1.8720    7.0431    0.0000 C    0  0  0  0  0  0  0  0  0  0  0  0
    1.1575    6.6306    0.0000 C    0  0  0  0  0  0  0  0  0  0  0  0
    0.4430    2.9180    0.0000 C    0  0  0  0  0  0  0  0  0  0  0  0
    3.3009    0.4430    0.0000 C    0  0  0  0  0  0  0  0  0  0  0  0
  3 15  1  0  0  0  0
  3 24  1  0  0  0  0
  4 21  1  0  0  0  0
  4 25  1  0  0  0  0
  5 10  1  0  0  0  0
  5 11  2  0  0  0  0
  6 18  1  0  0  0  0
  6 23  2  0  0  0  0
  7  8  1  0  0  0  0
  7  9  1  0  0  0  0
  8 10  1  0  0  0  0
  9 11  1  0  0  0  0
  9 12  2  0  0  0  0
 11 13  1  0  0  0  0
 12 14  1  0  0  0  0
 13 17  1  0  0  0  0
 13 18  2  0  0  0  0
 14 15  2  0  0  0  0
 14 16  1  0  0  0  0
 15 19  1  0  0  0  0
 16 20  2  0  0  0  0
 17 22  2  0  0  0  0
 19 21  2  0  0  0  0
 20 21  1  0  0  0  0
 22 23  1  0  0  0  0
M  END
> <DRUGBANK_ID>
DB05708

> <DRUG_GROUPS>
investigational

> <GENERIC_NAME>
GTS-21

> <SYNONYMS>


> <CHEMICAL_FORMULA>
C19H22Cl2N2O2

> <MOLECULAR_WEIGHT>
381.296

> <EXACT_MASS>
380.105833372

> <IUPAC_NAME>
3-[(3E)-3-[(2,4-dimethoxyphenyl)methylidene]-3,4,5,6-tetrahydropyridin-2-yl]pyridine dihydrochloride

> <IUPAC_TRADITIONAL_NAME>
3-[(3E)-3-[(2,4-dimethoxyphenyl)methylidene]-5,6-dihydro-4H-pyridin-2-yl]pyridine dihydrochloride

> <INCHI_IDENTIFIER>
InChI=1S/C19H20N2O2.2ClH/c1-22-17-8-7-14(18(12-17)23-2)11-15-5-4-10-21-19(15)16-6-3-9-20-13-16;;/h3,6-9,11-13H,4-5,10H2,1-2H3;2*1H/b15-11+;;

> <INCHI_KEY>
InChIKey=BXKYFUGAAFLYJL-BXGYHSFXSA-N

> <SMILES>
Cl.Cl.COC1=CC(OC)=C(\C=C2/CCCN=C2C2=CN=CC=C2)C=C1

> <JCHEM_ACCEPTOR_COUNT>
4

> <JCHEM_DONOR_COUNT>
0

> <JCHEM_BASIC_PKA>
5.89

> <JCHEM_PHYSIOLOGICAL_CHARGE>
0

> <JCHEM_LOGP>
2.96

> <JCHEM_POLARIZABILITY>
33.94

> <JCHEM_POLAR_SURFACE_AREA>
43.71

> <JCHEM_REFRACTIVITY>
91.83

> <JCHEM_ROTATABLE_BOND_COUNT>
4 __ 

$$$$
