
  Mrv0541 02231218072D          

 72 73  0  0  0  0            999 V2000
   18.7597    9.7165    0.0000 Lu   0  0  0  0  0  0  0  0  0  0  0  0
    4.3825    3.7985    0.0000 O    0  0  0  0  0  0  0  0  0  0  0  0
   14.9807    4.0182    0.0000 O    0  0  0  0  0  0  0  0  0  0  0  0
    8.8154    8.9285    0.0000 O    0  0  0  0  0  0  0  0  0  0  0  0
   10.4802    8.9285    0.0000 O    0  0  0  0  0  0  0  0  0  0  0  0
    9.2278   11.0717    0.0000 O    0  0  0  0  0  0  0  0  0  0  0  0
   12.5425    9.6429    0.0000 O    0  0  0  0  0  0  0  0  0  0  0  0
    8.8155   13.2148    0.0000 O    0  0  0  0  0  0  0  0  0  0  0  0
   14.1923   11.0717    0.0000 O    0  0  0  0  0  0  0  0  0  0  0  0
    9.2279   15.3579    0.0000 O    0  0  0  0  0  0  0  0  0  0  0  0
   16.2545   11.7860    0.0000 O    0  0  0  0  0  0  0  0  0  0  0  0
   11.2515   19.4025    0.0000 O    0  0  0  0  0  0  0  0  0  0  0  0
    1.8717   10.3198    0.0000 O    0  0  0  0  0  0  0  0  0  0  0  0
   10.5372   18.1650    0.0000 O    0  0  0  0  0  0  0  0  0  0  0  0
    1.1573    9.0825    0.0000 O    0  0  0  0  0  0  0  0  0  0  0  0
    8.5209    4.4754    0.0000 N    0  0  0  0  0  0  0  0  0  0  0  0
    9.6851    3.1806    0.0000 N    0  0  0  0  0  0  0  0  0  0  0  0
   10.8306    4.4381    0.0000 N    0  0  0  0  0  0  0  0  0  0  0  0
    8.8079    6.0320    0.0000 N    0  0  0  0  0  0  0  0  0  0  0  0
   10.4877    6.0320    0.0000 N    0  0  0  0  0  0  0  0  0  0  0  0
    7.2285    4.0555    0.0000 C    0  0  0  0  0  0  0  0  0  0  0  0
    9.2652    1.8882    0.0000 C    0  0  0  0  0  0  0  0  0  0  0  0
    8.0322    3.7680    0.0000 C    0  0  0  0  0  0  0  0  0  0  0  0
   10.1050    1.8882    0.0000 C    0  0  0  0  0  0  0  0  0  0  0  0
    9.0056    2.6869    0.0000 C    0  0  0  0  0  0  0  0  0  0  0  0
    6.5541    3.5805    0.0000 C    0  0  0  0  0  0  0  0  0  0  0  0
    7.2285    4.8953    0.0000 C    0  0  0  0  0  0  0  0  0  0  0  0
   10.3646    2.6869    0.0000 C    0  0  0  0  0  0  0  0  0  0  0  0
    8.2069    2.9465    0.0000 C    0  0  0  0  0  0  0  0  0  0  0  0
    8.0273    5.1549    0.0000 C    0  0  0  0  0  0  0  0  0  0  0  0
    8.7803    1.2207    0.0000 C    0  0  0  0  0  0  0  0  0  0  0  0
   10.6571    1.2751    0.0000 C    0  0  0  0  0  0  0  0  0  0  0  0
    5.8055    3.9271    0.0000 C    0  0  0  0  0  0  0  0  0  0  0  0
   12.1231    4.0182    0.0000 C    0  0  0  0  0  0  0  0  0  0  0  0
   11.3381    3.7680    0.0000 C    0  0  0  0  0  0  0  0  0  0  0  0
   11.1634    2.9465    0.0000 C    0  0  0  0  0  0  0  0  0  0  0  0
   12.8375    3.6057    0.0000 C    0  0  0  0  0  0  0  0  0  0  0  0
   12.1231    4.8580    0.0000 C    0  0  0  0  0  0  0  0  0  0  0  0
    6.6155    5.4474    0.0000 C    0  0  0  0  0  0  0  0  0  0  0  0
    9.1159    0.4672    0.0000 C    0  0  0  0  0  0  0  0  0  0  0  0
   11.3244    5.1176    0.0000 C    0  0  0  0  0  0  0  0  0  0  0  0
   13.5519    4.0182    0.0000 C    0  0  0  0  0  0  0  0  0  0  0  0
   10.4021    0.4906    0.0000 C    0  0  0  0  0  0  0  0  0  0  0  0
    5.1311    3.4519    0.0000 C    0  0  0  0  0  0  0  0  0  0  0  0
    8.2019    5.9764    0.0000 C    0  0  0  0  0  0  0  0  0  0  0  0
   12.7361    5.4101    0.0000 C    0  0  0  0  0  0  0  0  0  0  0  0
   14.2663    3.6057    0.0000 C    0  0  0  0  0  0  0  0  0  0  0  0
   11.0647    5.9164    0.0000 C    0  0  0  0  0  0  0  0  0  0  0  0
    9.2278    6.7594    0.0000 C    0  0  0  0  0  0  0  0  0  0  0  0
   10.0677    6.7594    0.0000 C    0  0  0  0  0  0  0  0  0  0  0  0
    8.8079    7.4867    0.0000 C    0  0  0  0  0  0  0  0  0  0  0  0
   10.4877    7.4867    0.0000 C    0  0  0  0  0  0  0  0  0  0  0  0
    9.2278    8.2141    0.0000 C    0  0  0  0  0  0  0  0  0  0  0  0
   10.0677    8.2141    0.0000 C    0  0  0  0  0  0  0  0  0  0  0  0
    9.2278    9.6429    0.0000 C    0  0  0  0  0  0  0  0  0  0  0  0
   11.3051    8.9285    0.0000 C    0  0  0  0  0  0  0  0  0  0  0  0
    8.8154   10.3572    0.0000 C    0  0  0  0  0  0  0  0  0  0  0  0
   11.7176    9.6429    0.0000 C    0  0  0  0  0  0  0  0  0  0  0  0
    8.8154   11.7860    0.0000 C    0  0  0  0  0  0  0  0  0  0  0  0
   12.9549   10.3573    0.0000 C    0  0  0  0  0  0  0  0  0  0  0  0
    9.2278   12.5004    0.0000 C    0  0  0  0  0  0  0  0  0  0  0  0
   13.7798   10.3573    0.0000 C    0  0  0  0  0  0  0  0  0  0  0  0
    9.2279   13.9292    0.0000 C    0  0  0  0  0  0  0  0  0  0  0  0
   15.0172   11.0717    0.0000 C    0  0  0  0  0  0  0  0  0  0  0  0
    8.8155   14.6436    0.0000 C    0  0  0  0  0  0  0  0  0  0  0  0
   15.4296   11.7860    0.0000 C    0  0  0  0  0  0  0  0  0  0  0  0
    8.8155   16.0724    0.0000 C    0  0  0  0  0  0  0  0  0  0  0  0
   16.6669   12.5004    0.0000 C    0  0  0  0  0  0  0  0  0  0  0  0
    9.8228   19.4025    0.0000 C    0  0  0  0  0  0  0  0  0  0  0  0
    0.4428   10.3198    0.0000 C    0  0  0  0  0  0  0  0  0  0  0  0
   10.5372   18.9900    0.0000 C    0  0  0  0  0  0  0  0  0  0  0  0
    1.1573    9.9074    0.0000 C    0  0  0  0  0  0  0  0  0  0  0  0
  2 44  1  0  0  0  0
  3 47  1  0  0  0  0
  4 53  1  0  0  0  0
  4 55  1  0  0  0  0
  5 54  1  0  0  0  0
  5 56  1  0  0  0  0
  6 57  1  0  0  0  0
  6 59  1  0  0  0  0
  7 58  1  0  0  0  0
  7 60  1  0  0  0  0
  8 61  1  0  0  0  0
  8 63  1  0  0  0  0
  9 62  1  0  0  0  0
  9 64  1  0  0  0  0
 10 65  1  0  0  0  0
 10 67  1  0  0  0  0
 11 66  1  0  0  0  0
 11 68  1  0  0  0  0
 12 71  1  0  0  0  0
 13 72  1  0  0  0  0
 14 71  2  0  0  0  0
 15 72  2  0  0  0  0
 16 23  1  0  0  0  0
 16 30  1  0  0  0  0
 17 25  2  0  0  0  0
 17 28  1  0  0  0  0
 18 35  2  0  0  0  0
 18 41  1  0  0  0  0
 19 45  1  0  0  0  0
 19 49  2  0  0  0  0
 20 48  1  0  0  0  0
 20 50  2  0  0  0  0
 21 23  1  0  0  0  0
 21 26  1  0  0  0  0
 21 27  2  0  0  0  0
 22 24  2  0  0  0  0
 22 25  1  0  0  0  0
 22 31  1  0  0  0  0
 23 29  2  0  0  0  0
 24 28  1  0  0  0  0
 24 32  1  0  0  0  0
 25 29  1  0  0  0  0
 26 33  1  0  0  0  0
 27 30  1  0  0  0  0
 27 39  1  0  0  0  0
 28 36  2  0  0  0  0
 30 45  2  0  0  0  0
 31 40  1  0  0  0  0
 32 43  1  0  0  0  0
 33 44  1  0  0  0  0
 34 35  1  0  0  0  0
 34 37  1  0  0  0  0
 34 38  2  0  0  0  0
 35 36  1  0  0  0  0
 37 42  1  0  0  0  0
 38 41  1  0  0  0  0
 38 46  1  0  0  0  0
 41 48  2  0  0  0  0
 42 47  1  0  0  0  0
 49 50  1  0  0  0  0
 49 51  1  0  0  0  0
 50 52  1  0  0  0  0
 51 53  2  0  0  0  0
 52 54  2  0  0  0  0
 53 54  1  0  0  0  0
 55 57  1  0  0  0  0
 56 58  1  0  0  0  0
 59 61  1  0  0  0  0
 60 62  1  0  0  0  0
 63 65  1  0  0  0  0
 64 66  1  0  0  0  0
 69 71  1  0  0  0  0
 70 72  1  0  0  0  0
M  END
> <DRUGBANK_ID>
DB05296

> <DRUG_GROUPS>
investigational

> <GENERIC_NAME>
motexafin lutetium

> <BRANDS>


> <CHEMICAL_FORMULA>
C52H75LuN5O14

> <MOLECULAR_WEIGHT>
1169.144

> <EXACT_MASS>
1168.471820037

> <IUPAC_NAME>
3-[4,5-diethyl-24-(3-hydroxypropyl)-16,17-bis({2-[2-(2-methoxyethoxy)ethoxy]ethoxy})-10,23-dimethyl-13,20,25,26,27-pentaazapentacyclo[20.2.1.1^{3,6}.1^{8,11}.0^{14,19}]heptacosa-1,3(27),4,6,8,10,12,14,16,18,20,22(25),23-tridecaen-9-yl]propan-1-ol bis(acetic acid) lutetium

> <IUPAC_TRADITIONAL_NAME>
3-[4,5-diethyl-24-(3-hydroxypropyl)-16,17-bis({2-[2-(2-methoxyethoxy)ethoxy]ethoxy})-10,23-dimethyl-13,20,25,26,27-pentaazapentacyclo[20.2.1.1^{3,6}.1^{8,11}.0^{14,19}]heptacosa-1,3(27),4,6,8,10,12,14,16,18,20,22(25),23-tridecaen-9-yl]propan-1-ol bis(acetic acid) lutetium

> <INCHI_IDENTIFIER>
InChI=1S/C48H67N5O10.2C2H4O2.Lu/c1-7-35-36(8-2)40-28-42-38(12-10-14-55)34(4)46(53-42)32-50-44-30-48(63-26-24-61-22-20-59-18-16-57-6)47(62-25-23-60-21-19-58-17-15-56-5)29-43(44)49-31-45-33(3)37(11-9-13-54)41(52-45)27-39(35)51-40;2*1-2(3)4;/h27-32,52,54-55H,7-26H2,1-6H3;2*1H3,(H,3,4);/b39-27-,40-28-,41-27-,42-28-,45-31-,46-32-,49-31+,49-43+,50-32+,50-44+;;;

> <INCHI_KEY>
InChIKey=ISYPMTHOLIXZHJ-WRIGXHCHSA-N

> <SMILES>
[Lu].CC(O)=O.CC(O)=O.CCC1=C(CC)C2=N\C\1=C/C1=N/C(=C\N=C3/C=C(OCCOCCOCCOC)C(OCCOCCOCCOC)=C/C/3=N\C=C3/N/C(=C\2)C(CCCO)=C3C)/C(C)=C1CCCO

> <JCHEM_ACCEPTOR_COUNT>
14

> <JCHEM_DONOR_COUNT>
3

> <JCHEM_ACIDIC_PKA>
15.51

> <JCHEM_BASIC_PKA>
4.47

> <JCHEM_PHYSIOLOGICAL_CHARGE>
0

> <JCHEM_LOGP>
6.76

> <JCHEM_POLARIZABILITY>
104.11

> <JCHEM_POLAR_SURFACE_AREA>
181.65

> <JCHEM_REFRACTIVITY>
242.47

> <JCHEM_ROTATABLE_BOND_COUNT>
28 __ 

$$$$
