
  Mrv0541 02231218112D          

 34 37  0  0  0  0            999 V2000
    8.7797   -4.3538    0.0000 Cl   0  0  0  0  0  0  0  0  0  0  0  0
   10.2181   -3.5454    0.0000 F    0  0  0  0  0  0  0  0  0  0  0  0
    1.6500    3.9413    0.0000 O    0  0  0  0  0  0  0  0  0  0  0  0
    4.5080    0.6412    0.0000 O    0  0  0  0  0  0  0  0  0  0  0  0
    3.7935    0.2287    0.0000 O    0  0  0  0  0  0  0  0  0  0  0  0
    3.0791    3.1163    0.0000 N    0  0  0  0  0  0  0  0  0  0  0  0
    4.5080   -1.0088    0.0000 N    0  0  0  0  0  0  0  0  0  0  0  0
    7.3795   -1.8624    0.0000 N    0  0  0  0  0  0  0  0  0  0  0  0
    7.3889    0.6698    0.0000 N    0  0  0  0  0  0  0  0  0  0  0  0
    8.1365   -0.6135    0.0000 N    0  0  0  0  0  0  0  0  0  0  0  0
    3.7935    2.7037    0.0000 C    0  0  0  0  0  0  0  0  0  0  0  0
    2.3645    2.7037    0.0000 C    0  0  0  0  0  0  0  0  0  0  0  0
    3.0791    3.9413    0.0000 C    0  0  0  0  0  0  0  0  0  0  0  0
    3.7935    1.8787    0.0000 C    0  0  0  0  0  0  0  0  0  0  0  0
    1.6500    3.1163    0.0000 C    0  0  0  0  0  0  0  0  0  0  0  0
    2.3645    4.3538    0.0000 C    0  0  0  0  0  0  0  0  0  0  0  0
    4.5080    1.4662    0.0000 C    0  0  0  0  0  0  0  0  0  0  0  0
    5.2224    0.2287    0.0000 C    0  0  0  0  0  0  0  0  0  0  0  0
    5.2224   -0.5963    0.0000 C    0  0  0  0  0  0  0  0  0  0  0  0
    6.6515   -0.5963    0.0000 C    0  0  0  0  0  0  0  0  0  0  0  0
    5.9370    0.6412    0.0000 C    0  0  0  0  0  0  0  0  0  0  0  0
    6.6515    0.2287    0.0000 C    0  0  0  0  0  0  0  0  0  0  0  0
    5.9370   -1.0088    0.0000 C    0  0  0  0  0  0  0  0  0  0  0  0
    7.3889   -1.0375    0.0000 C    0  0  0  0  0  0  0  0  0  0  0  0
    8.0891   -2.2832    0.0000 C    0  0  0  0  0  0  0  0  0  0  0  0
    8.1365    0.2459    0.0000 C    0  0  0  0  0  0  0  0  0  0  0  0
    3.7935   -0.5963    0.0000 C    0  0  0  0  0  0  0  0  0  0  0  0
    8.0796   -3.1081    0.0000 C    0  0  0  0  0  0  0  0  0  0  0  0
    8.8083   -1.8789    0.0000 C    0  0  0  0  0  0  0  0  0  0  0  0
    8.7892   -3.5289    0.0000 C    0  0  0  0  0  0  0  0  0  0  0  0
    9.5180   -2.2997    0.0000 C    0  0  0  0  0  0  0  0  0  0  0  0
    3.0791   -1.0088    0.0000 C    0  0  0  0  0  0  0  0  0  0  0  0
    9.5084   -3.1246    0.0000 C    0  0  0  0  0  0  0  0  0  0  0  0
    2.3645   -0.5963    0.0000 C    0  0  0  0  0  0  0  0  0  0  0  0
  1 30  1  0  0  0  0
  2 33  1  0  0  0  0
  3 15  1  0  0  0  0
  3 16  1  0  0  0  0
  4 17  1  0  0  0  0
  4 18  1  0  0  0  0
  5 27  2  0  0  0  0
  6 11  1  0  0  0  0
  6 12  1  0  0  0  0
  6 13  1  0  0  0  0
  7 19  1  0  0  0  0
  7 27  1  0  0  0  0
  8 24  1  0  0  0  0
  8 25  1  0  0  0  0
  9 22  1  0  0  0  0
  9 26  2  0  0  0  0
 10 24  2  0  0  0  0
 10 26  1  0  0  0  0
 11 14  1  0  0  0  0
 12 15  1  0  0  0  0
 13 16  1  0  0  0  0
 14 17  1  0  0  0  0
 18 19  2  0  0  0  0
 18 21  1  0  0  0  0
 19 23  1  0  0  0  0
 20 22  1  0  0  0  0
 20 23  2  0  0  0  0
 20 24  1  0  0  0  0
 21 22  2  0  0  0  0
 25 28  2  0  0  0  0
 25 29  1  0  0  0  0
 27 32  1  0  0  0  0
 28 30  1  0  0  0  0
 29 31  2  0  0  0  0
 30 33  2  0  0  0  0
 31 33  1  0  0  0  0
 32 34  2  0  0  0  0
M  END
> <DRUGBANK_ID>
DB05424

> <DRUG_GROUPS>
investigational

> <GENERIC_NAME>
CI-1033

> <CHEMICAL_FORMULA>
C24H25ClFN5O3

> <MOLECULAR_WEIGHT>
485.938

> <EXACT_MASS>
485.162995603

> <IUPAC_NAME>
N-{4-[(3-chloro-4-fluorophenyl)amino]-7-[3-(morpholin-4-yl)propoxy]quinazolin-6-yl}prop-2-enamide

> <IUPAC_TRADITIONAL_NAME>
canertinibumcanertinib

> <INCHI_IDENTIFIER>
InChI=1S/C24H25ClFN5O3/c1-2-23(32)30-21-13-17-20(14-22(21)34-9-3-6-31-7-10-33-11-8-31)27-15-28-24(17)29-16-4-5-19(26)18(25)12-16/h2,4-5,12-15H,1,3,6-11H2,(H,30,32)(H,27,28,29)

> <INCHI_KEY>
InChIKey=OMZCMEYTWSXEPZ-UHFFFAOYSA-N

> <SMILES>
FC1=C(Cl)C=C(NC2=NC=NC3=CC(OCCCN4CCOCC4)=C(NC(=O)C=C)C=C23)C=C1

> <JCHEM_ACCEPTOR_COUNT>
7

> <JCHEM_DONOR_COUNT>
2

> <JCHEM_ACIDIC_PKA>
12.54

> <JCHEM_BASIC_PKA>
6.87

> <JCHEM_PHYSIOLOGICAL_CHARGE>
0

> <ALOGPS_LOGP>
4.09

> <JCHEM_LOGP>
3.9

> <ALOGPS_LOGS>
-4.5

> <JCHEM_POLARIZABILITY>
50.36

> <JCHEM_POLAR_SURFACE_AREA>
88.61

> <JCHEM_REFRACTIVITY>
130.55

> <JCHEM_ROTATABLE_BOND_COUNT>
9

> <ALOGPS_SOLUBILITY>
1.55e-02 g/l __ 

$$$$
