
  Mrv0541 02231218122D          

139143  0  0  1  0            999 V2000
    9.9524    2.0625    0.0000 S   0  0  0  0  0  0  0  0  0  0  0  0
   10.6668    1.6500    0.0000 S   0  0  0  0  0  0  0  0  0  0  0  0
    6.7925   -3.4106    0.0000 O   0  0  0  0  0  0  0  0  0  0  0  0
    4.2365   -3.7126    0.0000 O   0  0  0  0  0  0  0  0  0  0  0  0
    8.5234   -5.3626    0.0000 O   0  0  0  0  0  0  0  0  0  0  0  0
    7.0944   -2.0625    0.0000 O   0  0  0  0  0  0  0  0  0  0  0  0
    9.9524   -2.0625    0.0000 O   0  0  0  0  0  0  0  0  0  0  0  0
    4.9509    0.8250    0.0000 O   0  0  0  0  0  0  0  0  0  0  0  0
    2.0930   -3.3001    0.0000 O   0  0  0  0  0  0  0  0  0  0  0  0
   10.6668   -1.6500    0.0000 O   0  0  0  0  0  0  0  0  0  0  0  0
    7.0944    2.8876    0.0000 O   0  0  0  0  0  0  0  0  0  0  0  0
   10.6668   -0.8250    0.0000 O   0  0  0  0  0  0  0  0  0  0  0  0
    7.8089    3.3001    0.0000 O   0  0  0  0  0  0  0  0  0  0  0  0
   11.3814    2.0625    0.0000 O   0  0  0  0  0  0  0  0  0  0  0  0
   15.6682   -0.4125    0.0000 O   0  0  0  0  0  0  0  0  0  0  0  0
    9.9524    5.3626    0.0000 O   0  0  0  0  0  0  0  0  0  0  0  0
   11.3814    2.8876    0.0000 O   0  0  0  0  0  0  0  0  0  0  0  0
   10.6668    4.1251    0.0000 O   0  0  0  0  0  0  0  0  0  0  0  0
   12.0958    5.7751    0.0000 O   0  0  0  0  0  0  0  0  0  0  0  0
   16.3827    3.3001    0.0000 O   0  0  0  0  0  0  0  0  0  0  0  0
    5.6655   -4.5376    0.0000 N   0  0  0  0  0  0  0  0  0  0  0  0
    5.6655   -2.8876    0.0000 N   0  0  0  0  0  0  0  0  0  0  0  0
    7.8089   -4.1251    0.0000 N   0  0  0  0  0  0  0  0  0  0  0  0
    9.2379   -3.3001    0.0000 N   0  0  0  0  0  0  0  0  0  0  0  0
    6.3799   -0.8250    0.0000 N   0  0  0  0  0  0  0  0  0  0  0  0
    7.0944   -7.8377    0.0000 N   0  0  0  0  0  0  0  0  0  0  0  0
    6.3799    0.8250    0.0000 N   0  0  0  0  0  0  0  0  0  0  0  0
   11.3814   -2.8876    0.0000 N   0  0  0  0  0  0  0  0  0  0  0  0
    9.9524   -7.0127    0.0000 N   0  0  0  0  0  0  0  0  0  0  0  0
    3.5220    0.8250    0.0000 N   0  0  0  0  0  0  0  0  0  0  0  0
    7.8089    1.6500    0.0000 N   0  0  0  0  0  0  0  0  0  0  0  0
   12.0958   -0.8250    0.0000 N   0  0  0  0  0  0  0  0  0  0  0  0
   12.0958   -5.7751    0.0000 N   0  0  0  0  0  0  0  0  0  0  0  0
   12.0958    0.8250    0.0000 N   0  0  0  0  0  0  0  0  0  0  0  0
    4.2365    4.5376    0.0000 N   0  0  0  0  0  0  0  0  0  0  0  0
    2.0930    0.8250    0.0000 N   0  0  0  0  0  0  0  0  0  0  0  0
    9.2379    3.3001    0.0000 N   0  0  0  0  0  0  0  0  0  0  0  0
    2.8075   -0.4125    0.0000 N   0  0  0  0  0  0  0  0  0  0  0  0
   12.8103   -7.0127    0.0000 N   0  0  0  0  0  0  0  0  0  0  0  0
   11.3814   -7.0127    0.0000 N   0  0  0  0  0  0  0  0  0  0  0  0
   12.8103    2.8876    0.0000 N   0  0  0  0  0  0  0  0  0  0  0  0
   12.8103    4.5376    0.0000 N   0  0  0  0  0  0  0  0  0  0  0  0
    7.8089    6.6001    0.0000 N   0  0  0  0  0  0  0  0  0  0  0  0
   10.6668    6.6001    0.0000 N   0  0  0  0  0  0  0  0  0  0  0  0
   13.5248    6.6001    0.0000 N   0  0  0  0  0  0  0  0  0  0  0  0
   16.3827    5.7751    0.0000 N   0  0  0  0  0  0  0  0  0  0  0  0
    7.0944    7.8377    0.0000 N   0  0  0  0  0  0  0  0  0  0  0  0
    6.3799    6.6001    0.0000 N   0  0  0  0  0  0  0  0  0  0  0  0
   11.3814    7.8377    0.0000 N   0  0  0  0  0  0  0  0  0  0  0  0
   12.0958    6.6001    0.0000 N   0  0  0  0  0  0  0  0  0  0  0  0
   17.8117    5.7751    0.0000 N   0  0  0  0  0  0  0  0  0  0  0  0
   17.0973    4.5376    0.0000 N   0  0  0  0  0  0  0  0  0  0  0  0
    4.9509   -4.1251    0.0000 C   0  0  1  0  0  0  0  0  0  0  0  0
    4.3429   -4.6755    0.0000 C   0  0  0  0  0  0  0  0  0  0  0  0
    4.6771   -5.4244    0.0000 C   0  0  0  0  0  0  0  0  0  0  0  0
    5.4929   -5.3394    0.0000 C   0  0  0  0  0  0  0  0  0  0  0  0
    6.3799   -4.1251    0.0000 C   0  0  0  0  0  0  0  0  0  0  0  0
    7.0944   -4.5376    0.0000 C   0  0  1  0  0  0  0  0  0  0  0  0
    4.9509   -3.3001    0.0000 C   0  0  0  0  0  0  0  0  0  0  0  0
    7.0944   -5.3626    0.0000 C   0  0  0  0  0  0  0  0  0  0  0  0
    7.8089   -5.7751    0.0000 C   0  0  0  0  0  0  0  0  0  0  0  0
    5.6655   -2.0625    0.0000 C   0  0  1  0  0  0  0  0  0  0  0  0
    7.8089   -6.6001    0.0000 C   0  0  0  0  0  0  0  0  0  0  0  0
    8.5234   -4.5376    0.0000 C   0  0  0  0  0  0  0  0  0  0  0  0
    4.9509   -1.6500    0.0000 C   0  0  0  0  0  0  0  0  0  0  0  0
    9.2379   -4.1251    0.0000 C   0  0  2  0  0  0  0  0  0  0  0  0
    6.3799   -1.6500    0.0000 C   0  0  0  0  0  0  0  0  0  0  0  0
    9.9524   -4.5376    0.0000 C   0  0  0  0  0  0  0  0  0  0  0  0
    7.0944   -7.0127    0.0000 C   0  0  0  0  0  0  0  0  0  0  0  0
    4.2365   -2.0625    0.0000 C   0  0  0  0  0  0  0  0  0  0  0  0
    9.9524   -5.3626    0.0000 C   0  0  0  0  0  0  0  0  0  0  0  0
    5.6655   -0.4125    0.0000 C   0  0  1  0  0  0  0  0  0  0  0  0
   10.6668   -5.7751    0.0000 C   0  0  0  0  0  0  0  0  0  0  0  0
    4.9509   -0.8250    0.0000 C   0  0  0  0  0  0  0  0  0  0  0  0
    9.9524   -2.8876    0.0000 C   0  0  0  0  0  0  0  0  0  0  0  0
   10.6668   -3.3001    0.0000 C   0  0  2  0  0  0  0  0  0  0  0  0
    4.2365   -2.8876    0.0000 C   0  0  0  0  0  0  0  0  0  0  0  0
    3.5220   -1.6500    0.0000 C   0  0  0  0  0  0  0  0  0  0  0  0
    5.6655    0.4125    0.0000 C   0  0  0  0  0  0  0  0  0  0  0  0
    4.2365   -0.4125    0.0000 C   0  0  0  0  0  0  0  0  0  0  0  0
   10.6668   -4.1251    0.0000 C   0  0  0  0  0  0  0  0  0  0  0  0
   10.6668   -6.6001    0.0000 C   0  0  0  0  0  0  0  0  0  0  0  0
    3.5220   -3.3001    0.0000 C   0  0  0  0  0  0  0  0  0  0  0  0
    2.8075   -2.0625    0.0000 C   0  0  0  0  0  0  0  0  0  0  0  0
    6.3799    1.6500    0.0000 C   0  0  1  0  0  0  0  0  0  0  0  0
   11.3814   -4.5376    0.0000 C   0  0  0  0  0  0  0  0  0  0  0  0
    4.2365    0.4125    0.0000 C   0  0  0  0  0  0  0  0  0  0  0  0
    2.8075   -2.8876    0.0000 C   0  0  0  0  0  0  0  0  0  0  0  0
    5.6655    2.0625    0.0000 C   0  0  0  0  0  0  0  0  0  0  0  0
   11.3814   -2.0625    0.0000 C   0  0  0  0  0  0  0  0  0  0  0  0
   11.3814   -5.3626    0.0000 C   0  0  0  0  0  0  0  0  0  0  0  0
   12.0958   -1.6500    0.0000 C   0  0  2  0  0  0  0  0  0  0  0  0
    5.6655    2.8876    0.0000 C   0  0  0  0  0  0  0  0  0  0  0  0
    7.0944    2.0625    0.0000 C   0  0  0  0  0  0  0  0  0  0  0  0
    4.9509    3.3001    0.0000 C   0  0  0  0  0  0  0  0  0  0  0  0
   12.8103   -2.0625    0.0000 C   0  0  0  0  0  0  0  0  0  0  0  0
    8.5234    2.0625    0.0000 C   0  0  1  0  0  0  0  0  0  0  0  0
    4.9509    4.1251    0.0000 C   0  0  0  0  0  0  0  0  0  0  0  0
    2.8075    0.4125    0.0000 C   0  0  0  0  0  0  0  0  0  0  0  0
   13.5248   -1.6500    0.0000 C   0  0  0  0  0  0  0  0  0  0  0  0
   11.3814   -0.4125    0.0000 C   0  0  0  0  0  0  0  0  0  0  0  0
   11.3814    0.4125    0.0000 C   0  0  2  0  0  0  0  0  0  0  0  0
    9.2379    1.6500    0.0000 C   0  0  0  0  0  0  0  0  0  0  0  0
    8.5234    2.8876    0.0000 C   0  0  0  0  0  0  0  0  0  0  0  0
   12.0958   -6.6001    0.0000 C   0  0  0  0  0  0  0  0  0  0  0  0
   10.6668    0.8250    0.0000 C   0  0  0  0  0  0  0  0  0  0  0  0
   13.5248   -0.8250    0.0000 C   0  0  0  0  0  0  0  0  0  0  0  0
   14.2393   -2.0625    0.0000 C   0  0  0  0  0  0  0  0  0  0  0  0
    9.2379    4.1251    0.0000 C   0  0  1  0  0  0  0  0  0  0  0  0
   12.8103    2.0625    0.0000 C   0  0  2  0  0  0  0  0  0  0  0  0
   12.0958    1.6500    0.0000 C   0  0  0  0  0  0  0  0  0  0  0  0
   14.2393   -0.4125    0.0000 C   0  0  0  0  0  0  0  0  0  0  0  0
   14.9538   -1.6500    0.0000 C   0  0  0  0  0  0  0  0  0  0  0  0
    8.5234    4.5376    0.0000 C   0  0  0  0  0  0  0  0  0  0  0  0
   14.9538   -0.8250    0.0000 C   0  0  0  0  0  0  0  0  0  0  0  0
   13.5248    1.6500    0.0000 C   0  0  0  0  0  0  0  0  0  0  0  0
   12.0958    4.1251    0.0000 C   0  0  2  0  0  0  0  0  0  0  0  0
    8.5234    5.3626    0.0000 C   0  0  0  0  0  0  0  0  0  0  0  0
   12.0958    3.3001    0.0000 C   0  0  0  0  0  0  0  0  0  0  0  0
   11.3814    4.5376    0.0000 C   0  0  0  0  0  0  0  0  0  0  0  0
    9.9524    4.5376    0.0000 C   0  0  0  0  0  0  0  0  0  0  0  0
   14.2393    2.0625    0.0000 C   0  0  0  0  0  0  0  0  0  0  0  0
   11.3814    5.3626    0.0000 C   0  0  0  0  0  0  0  0  0  0  0  0
    7.8089    5.7751    0.0000 C   0  0  0  0  0  0  0  0  0  0  0  0
   13.5248    5.7751    0.0000 C   0  0  2  0  0  0  0  0  0  0  0  0
   12.8103    5.3626    0.0000 C   0  0  0  0  0  0  0  0  0  0  0  0
   10.6668    5.7751    0.0000 C   0  0  0  0  0  0  0  0  0  0  0  0
   14.2393    5.3626    0.0000 C   0  0  0  0  0  0  0  0  0  0  0  0
   14.9538    1.6500    0.0000 C   0  0  0  0  0  0  0  0  0  0  0  0
   14.2393    2.8876    0.0000 C   0  0  0  0  0  0  0  0  0  0  0  0
   14.9538    5.7751    0.0000 C   0  0  0  0  0  0  0  0  0  0  0  0
   15.6682    2.0625    0.0000 C   0  0  0  0  0  0  0  0  0  0  0  0
   14.9538    3.3001    0.0000 C   0  0  0  0  0  0  0  0  0  0  0  0
   15.6682    5.3626    0.0000 C   0  0  0  0  0  0  0  0  0  0  0  0
   15.6682    2.8876    0.0000 C   0  0  0  0  0  0  0  0  0  0  0  0
    7.0944    7.0127    0.0000 C   0  0  0  0  0  0  0  0  0  0  0  0
   11.3814    7.0127    0.0000 C   0  0  0  0  0  0  0  0  0  0  0  0
   17.0973    5.3626    0.0000 C   0  0  0  0  0  0  0  0  0  0  0  0
    4.3100   -3.8407    0.0000 H   0  0  0  0  0  0  0  0  0  0  0  0
  1  2  1  0  0  0  0
  1103  1  0  0  0  0
  2106  1  0  0  0  0
  3 57  2  0  0  0  0
  4 59  2  0  0  0  0
  5 64  2  0  0  0  0
  6 67  2  0  0  0  0
  7 75  2  0  0  0  0
  8 79  2  0  0  0  0
  9 88  1  0  0  0  0
 10 90  2  0  0  0  0
 11 94  2  0  0  0  0
 12101  2  0  0  0  0
 13104  2  0  0  0  0
 14111  2  0  0  0  0
 15115  1  0  0  0  0
 16121  1  0  0  0  0
 17119  2  0  0  0  0
 18121  2  0  0  0  0
 19126  2  0  0  0  0
 20135  1  0  0  0  0
 21 53  1  0  0  0  0
 21 56  1  0  0  0  0
 21 57  1  0  0  0  0
 22 59  1  0  0  0  0
 22 62  1  0  0  0  0
 23 58  1  0  0  0  0
 23 64  1  0  0  0  0
 24 66  1  0  0  0  0
 24 75  1  0  0  0  0
 25 67  1  0  0  0  0
 25 72  1  0  0  0  0
 26 69  1  0  0  0  0
 27 79  1  0  0  0  0
 27 85  1  0  0  0  0
 28 76  1  0  0  0  0
 28 90  1  0  0  0  0
 29 82  1  0  0  0  0
 30 87  1  0  0  0  0
 30 99  1  0  0  0  0
 31 94  1  0  0  0  0
 31 97  1  0  0  0  0
 32 92  1  0  0  0  0
 32101  1  0  0  0  0
 33 91  1  0  0  0  0
 33105  1  0  0  0  0
102 34  1  6  0  0  0
 34111  1  0  0  0  0
 35 98  1  0  0  0  0
 36 99  1  0  0  0  0
 37104  1  0  0  0  0
109 37  1  1  0  0  0
 38 99  2  0  0  0  0
 39105  1  0  0  0  0
 40105  2  0  0  0  0
110 41  1  1  0  0  0
 41119  1  0  0  0  0
117 42  1  6  0  0  0
 42126  1  0  0  0  0
 43124  1  0  0  0  0
 43136  1  0  0  0  0
 44127  1  0  0  0  0
 44137  1  0  0  0  0
125 45  1  1  0  0  0
 46134  1  0  0  0  0
 46138  1  0  0  0  0
 47136  1  0  0  0  0
 48136  2  0  0  0  0
 49137  1  0  0  0  0
 50137  2  0  0  0  0
 51138  1  0  0  0  0
 52138  2  0  0  0  0
 53 54  1  0  0  0  0
 53 59  1  0  0  0  0
 53139  1  6  0  0  0
 54 55  1  0  0  0  0
 55 56  1  0  0  0  0
 57 58  1  0  0  0  0
 58 60  1  6  0  0  0
 60 61  1  0  0  0  0
 61 63  1  0  0  0  0
 62 65  1  1  0  0  0
 62 67  1  0  0  0  0
 63 69  1  0  0  0  0
 64 66  1  0  0  0  0
 65 70  1  0  0  0  0
 66 68  1  1  0  0  0
 68 71  1  0  0  0  0
 70 77  2  0  0  0  0
 70 78  1  0  0  0  0
 71 73  1  0  0  0  0
 72 74  1  1  0  0  0
 72 79  1  0  0  0  0
 73 82  1  0  0  0  0
 74 80  1  0  0  0  0
 75 76  1  0  0  0  0
 76 81  1  1  0  0  0
 77 83  1  0  0  0  0
 78 84  2  0  0  0  0
 80 87  1  0  0  0  0
 81 86  1  0  0  0  0
 83 88  2  0  0  0  0
 84 88  1  0  0  0  0
 85 89  1  1  0  0  0
 85 94  1  0  0  0  0
 86 91  1  0  0  0  0
 89 93  1  0  0  0  0
 90 92  1  0  0  0  0
 92 96  1  1  0  0  0
 93 95  1  0  0  0  0
 95 98  1  0  0  0  0
 96100  1  0  0  0  0
 97103  1  0  0  0  0
 97104  1  6  0  0  0
100107  2  0  0  0  0
100108  1  0  0  0  0
101102  1  0  0  0  0
102106  1  0  0  0  0
107112  1  0  0  0  0
108113  2  0  0  0  0
109114  1  0  0  0  0
109121  1  0  0  0  0
110111  1  0  0  0  0
110116  1  0  0  0  0
112115  2  0  0  0  0
113115  1  0  0  0  0
114118  1  0  0  0  0
116122  1  0  0  0  0
117119  1  0  0  0  0
117120  1  0  0  0  0
118124  1  0  0  0  0
120123  1  0  0  0  0
122129  2  0  0  0  0
122130  1  0  0  0  0
123127  1  0  0  0  0
125126  1  0  0  0  0
125128  1  0  0  0  0
128131  1  0  0  0  0
129132  1  0  0  0  0
130133  2  0  0  0  0
131134  1  0  0  0  0
132135  2  0  0  0  0
133135  1  0  0  0  0
M  END
> <DRUGBANK_ID>
DB05490

> <DRUG_GROUPS>
investigational

> <GENERIC_NAME>
T131

> <SYNONYMS>


> <CHEMICAL_FORMULA>
C86H140N32O18S2

> <MOLECULAR_WEIGHT>
1974.365

> <EXACT_MASS>
1973.046477216

> <IUPAC_NAME>
(2S)-2-{[(3S,6S,9S,12R,17R,20S,23S,26S,29R,34aS)-17-[(2S)-2-[(2S)-2-[(2S)-2-amino-5-carbamimidamidopentanamido]-5-carbamimidamidopentanamido]-3-(4-hydroxyphenyl)propanamido]-9,26,29-tris(4-aminobutyl)-6,23-bis(3-carbamimidamidopropyl)-3,20-bis[(4-hydroxyphenyl)methyl]-1,4,7,10,18,21,24,27,30-nonaoxo-dotriacontahydropyrrolo[2,1-p]1,2-dithia-5,8,11,14,17,20,23,26,29-nonaazacyclodotriacontan-12-yl]formamido}-5-carbamimidamidopentanoic acid

> <IUPAC_TRADITIONAL_NAME>
(2S)-2-{[(3S,6S,9S,12R,17R,20S,23S,26S,29R,34aS)-17-[(2S)-2-[(2S)-2-[(2S)-2-amino-5-carbamimidamidopentanamido]-5-carbamimidamidopentanamido]-3-(4-hydroxyphenyl)propanamido]-9,26,29-tris(4-aminobutyl)-6,23-bis(3-carbamimidamidopropyl)-3,20-bis[(4-hydroxyphenyl)methyl]-1,4,7,10,18,21,24,27,30-nonaoxo-docosahydro-2H-pyrrolo[2,1-p]1,2-dithia-5,8,11,14,17,20,23,26,29-nonaazacyclodotriacontan-12-yl]formamido}-5-carbamimidamidopentanoic acid

> <INCHI_IDENTIFIER>
InChI=1S/C86H140N32O18S2/c87-34-4-1-14-55-71(125)111-60(16-3-6-36-89)80(134)118-42-12-21-67(118)79(133)115-64(45-50-26-32-53(121)33-27-50)75(129)110-59(19-10-40-104-85(97)98)70(124)108-56(15-2-5-35-88)73(127)116-65(77(131)112-61(81(135)136)20-11-41-105-86(99)100)46-137-138-47-66(78(132)114-62(43-48-22-28-51(119)29-23-48)74(128)109-58(69(123)107-55)18-9-39-103-84(95)96)117-76(130)63(44-49-24-30-52(120)31-25-49)113-72(126)57(17-8-38-102-83(93)94)106-68(122)54(90)13-7-37-101-82(91)92/h22-33,54-67,119-121H,1-21,34-47,87-90H2,(H,106,122)(H,107,123)(H,108,124)(H,109,128)(H,110,129)(H,111,125)(H,112,131)(H,113,126)(H,114,132)(H,115,133)(H,116,127)(H,117,130)(H,135,136)(H4,91,92,101)(H4,93,94,102)(H4,95,96,103)(H4,97,98,104)(H4,99,100,105)/t54-,55-,56-,57-,58-,59-,60+,61-,62-,63-,64-,65-,66-,67-/m0/s1

> <INCHI_KEY>
InChIKey=UVXNDFHXUYTRBE-AHMHAWCVSA-N

> <SMILES>
[H][C@@]12CCCN1C(=O)[C@@H](CCCCN)NC(=O)[C@H](CCCCN)NC(=O)[C@H](CCCNC(N)=N)NC(=O)[C@H](CC1=CC=C(O)C=C1)NC(=O)[C@H](CSSC[C@H](NC(=O)[C@H](CCCCN)NC(=O)[C@H](CCCNC(N)=N)NC(=O)[C@H](CC1=CC=C(O)C=C1)NC2=O)C(=O)N[C@@H](CCCNC(N)=N)C(O)=O)NC(=O)[C@H](CC1=CC=C(O)C=C1)NC(=O)[C@H](CCCNC(N)=N)NC(=O)[C@@H](N)CCCNC(N)=N

> <JCHEM_ACCEPTOR_COUNT>
37

> <JCHEM_DONOR_COUNT>
35

> <JCHEM_ACIDIC_PKA>
3.27

> <JCHEM_BASIC_PKA>
12.66

> <JCHEM_PHYSIOLOGICAL_CHARGE>
8

> <ALOGPS_LOGP>
-1.8

> <JCHEM_LOGP>
-11

> <ALOGPS_LOGS>
-4.3

> <JCHEM_POLARIZABILITY>
208.03

> <JCHEM_POLAR_SURFACE_AREA>
881.08

> <JCHEM_REFRACTIVITY>
565.8

> <JCHEM_ROTATABLE_BOND_COUNT>
47

> <ALOGPS_SOLUBILITY>
9.00e-02 g/l __ 

$$$$
