
  Mrv0541 02231218142D          

 16 16  0  0  1  0            999 V2000
    2.0322    2.8382    0.0000 F   0  0  0  0  0  0  0  0  0  0  0  0
    3.3376    2.2570    0.0000 F   0  0  0  0  0  0  0  0  0  0  0  0
    4.5311   -0.2899    0.0000 O   0  0  0  0  0  0  0  0  0  0  0  0
    1.6500   -1.3450    0.0000 O   0  0  0  0  0  0  0  0  0  0  0  0
    3.0791   -0.5199    0.0000 N   0  0  0  0  0  0  0  0  0  0  0  0
    2.3645   -2.5825    0.0000 N   0  0  0  0  0  0  0  0  0  0  0  0
    2.6666    0.7496    0.0000 C   0  0  1  0  0  0  0  0  0  0  0  0
    2.4115   -0.0350    0.0000 C   0  0  0  0  0  0  0  0  0  0  0  0
    3.4916    0.7496    0.0000 C   0  0  0  0  0  0  0  0  0  0  0  0
    3.0791   -1.3450    0.0000 C   0  0  1  0  0  0  0  0  0  0  0  0
    3.7465   -0.0350    0.0000 C   0  0  0  0  0  0  0  0  0  0  0  0
    3.7935   -1.7575    0.0000 C   0  0  0  0  0  0  0  0  0  0  0  0
    2.1816    1.4171    0.0000 C   0  0  0  0  0  0  0  0  0  0  0  0
    2.3645   -1.7575    0.0000 C   0  0  0  0  0  0  0  0  0  0  0  0
    3.7935   -2.5825    0.0000 C   0  0  0  0  0  0  0  0  0  0  0  0
    2.5171    2.1708    0.0000 C   0  0  0  0  0  0  0  0  0  0  0  0
  1 16  1  0  0  0  0
  2 16  1  0  0  0  0
  3 11  2  0  0  0  0
  4 14  2  0  0  0  0
  5  8  1  0  0  0  0
  5 10  1  0  0  0  0
  5 11  1  0  0  0  0
  6 14  1  0  0  0  0
  7  8  1  0  0  0  0
  7  9  1  0  0  0  0
  7 13  1  6  0  0  0
  9 11  1  0  0  0  0
 10 12  1  1  0  0  0
 10 14  1  0  0  0  0
 12 15  1  0  0  0  0
 13 16  2  0  0  0  0
M  END
> <DRUGBANK_ID>
DB05885

> <DRUG_GROUPS>
investigational

> <GENERIC_NAME>
UCB 44212

> <CHEMICAL_FORMULA>
C10H14F2N2O2

> <MOLECULAR_WEIGHT>
232.2272

> <EXACT_MASS>
232.102334112

> <IUPAC_NAME>
(2S)-2-[(4S)-4-(2,2-difluoroethenyl)-2-oxopyrrolidin-1-yl]butanamide

> <IUPAC_TRADITIONAL_NAME>
seletracetam

> <INCHI_IDENTIFIER>
InChI=1S/C10H14F2N2O2/c1-2-7(10(13)16)14-5-6(3-8(11)12)4-9(14)15/h3,6-7H,2,4-5H2,1H3,(H2,13,16)/t6-,7+/m1/s1

> <INCHI_KEY>
InChIKey=ANWPENAPCIFDSZ-RQJHMYQMSA-N

> <SMILES>
CC[C@H](N1C[C@@H](CC1=O)C=C(F)F)C(N)=O

> <JCHEM_ACCEPTOR_COUNT>
2

> <JCHEM_DONOR_COUNT>
1

> <JCHEM_ACIDIC_PKA>
14.66

> <JCHEM_BASIC_PKA>
-0.75

> <JCHEM_PHYSIOLOGICAL_CHARGE>
0

> <ALOGPS_LOGP>
0.51

> <JCHEM_LOGP>
0.091

> <ALOGPS_LOGS>
-2.4

> <JCHEM_POLARIZABILITY>
21.1

> <JCHEM_POLAR_SURFACE_AREA>
63.4

> <JCHEM_REFRACTIVITY>
64.33

> <JCHEM_ROTATABLE_BOND_COUNT>
4

> <ALOGPS_SOLUBILITY>
1.02e+00 g/l __ 

$$$$
