
  Mrv0541 02231218032D          

 35 38  0  0  1  0            999 V2000
   10.0626    0.2806    0.0000 O   0  0  0  0  0  0  0  0  0  0  0  0
   11.9981   -0.6202    0.0000 O   0  0  0  0  0  0  0  0  0  0  0  0
   12.0011    1.1747    0.0000 O   0  0  0  0  0  0  0  0  0  0  0  0
    2.3645   -1.4233    0.0000 O   0  0  0  0  0  0  0  0  0  0  0  0
    3.0791   -2.6608    0.0000 O   0  0  0  0  0  0  0  0  0  0  0  0
    9.4884    1.9052    0.0000 O   0  0  0  0  0  0  0  0  0  0  0  0
   10.2900   -1.1719    0.0000 N   0  0  0  0  0  0  0  0  0  0  0  0
   10.8482    2.3444    0.0000 N   0  0  0  0  0  0  0  0  0  0  0  0
   10.2900   -2.4998    0.0000 N   0  0  0  0  0  0  0  0  0  0  0  0
    8.7949   -1.0108    0.0000 N   0  0  0  0  0  0  0  0  0  0  0  0
    8.0804   -2.2483    0.0000 N   0  0  0  0  0  0  0  0  0  0  0  0
    8.7949   -3.4859    0.0000 N   0  0  0  0  0  0  0  0  0  0  0  0
    5.2224   -0.5983    0.0000 C   0  0  0  0  0  0  0  0  0  0  0  0
    3.7935   -1.4233    0.0000 C   0  0  0  0  0  0  0  0  0  0  0  0
    4.5080   -0.1858    0.0000 C   0  0  0  0  0  0  0  0  0  0  0  0
    5.2224   -1.4233    0.0000 C   0  0  0  0  0  0  0  0  0  0  0  0
    3.7935   -0.5983    0.0000 C   0  0  0  0  0  0  0  0  0  0  0  0
    4.5080   -1.8358    0.0000 C   0  0  0  0  0  0  0  0  0  0  0  0
   11.3315   -0.1341    0.0000 C   0  0  0  0  0  0  0  0  0  0  0  0
   10.5464   -0.3878    0.0000 C   0  0  1  0  0  0  0  0  0  0  0  0
   11.3329    0.6909    0.0000 C   0  0  0  0  0  0  0  0  0  0  0  0
    5.9370   -0.1858    0.0000 C   0  0  0  0  0  0  0  0  0  0  0  0
   10.5487    0.9472    0.0000 C   0  0  1  0  0  0  0  0  0  0  0  0
    3.0791   -1.8358    0.0000 C   0  0  0  0  0  0  0  0  0  0  0  0
   10.2951    1.7323    0.0000 C   0  0  0  0  0  0  0  0  0  0  0  0
    9.5094   -1.4233    0.0000 C   0  0  0  0  0  0  0  0  0  0  0  0
    6.6515   -0.5983    0.0000 C   0  0  0  0  0  0  0  0  0  0  0  0
   10.7715   -1.8358    0.0000 C   0  0  0  0  0  0  0  0  0  0  0  0
    9.5094   -2.2483    0.0000 C   0  0  0  0  0  0  0  0  0  0  0  0
    8.0804   -1.4233    0.0000 C   0  0  0  0  0  0  0  0  0  0  0  0
    7.3659   -1.0108    0.0000 C   0  0  0  0  0  0  0  0  0  0  0  0
    8.7949   -2.6608    0.0000 C   0  0  0  0  0  0  0  0  0  0  0  0
   10.5946    3.1295    0.0000 C   0  0  0  0  0  0  0  0  0  0  0  0
    1.6500   -1.8358    0.0000 C   0  0  0  0  0  0  0  0  0  0  0  0
   11.1477    3.7416    0.0000 C   0  0  0  0  0  0  0  0  0  0  0  0
  1 20  1  0  0  0  0
  1 23  1  0  0  0  0
  2 19  1  0  0  0  0
  3 21  1  0  0  0  0
  4 24  1  0  0  0  0
  4 34  1  0  0  0  0
  5 24  2  0  0  0  0
  6 25  2  0  0  0  0
 20  7  1  6  0  0  0
  7 26  1  0  0  0  0
  7 28  1  0  0  0  0
  8 25  1  0  0  0  0
  8 33  1  0  0  0  0
  9 28  2  0  0  0  0
  9 29  1  0  0  0  0
 10 26  2  0  0  0  0
 10 30  1  0  0  0  0
 11 30  2  0  0  0  0
 11 32  1  0  0  0  0
 12 32  1  0  0  0  0
 13 15  1  0  0  0  0
 13 16  1  0  0  0  0
 13 22  1  0  0  0  0
 14 17  1  0  0  0  0
 14 18  1  0  0  0  0
 14 24  1  0  0  0  0
 15 17  1  0  0  0  0
 16 18  1  0  0  0  0
 19 20  1  0  0  0  0
 19 21  1  0  0  0  0
 21 23  1  0  0  0  0
 22 27  1  0  0  0  0
 23 25  1  6  0  0  0
 26 29  1  0  0  0  0
 27 31  3  0  0  0  0
 29 32  2  0  0  0  0
 30 31  1  0  0  0  0
 33 35  1  0  0  0  0
M  END
> <DRUGBANK_ID>
DB05009

> <DRUG_GROUPS>
investigational

> <GENERIC_NAME>
BMS068645

> <CHEMICAL_FORMULA>
C23H30N6O6

> <MOLECULAR_WEIGHT>
486.5209

> <EXACT_MASS>
486.222682722

> <IUPAC_NAME>
methyl 4-(3-{6-amino-9-[(2R,5S)-5-(ethylcarbamoyl)-3,4-dihydroxyoxolan-2-yl]-9H-purin-2-yl}prop-2-yn-1-yl)cyclohexane-1-carboxylate

> <IUPAC_TRADITIONAL_NAME>
methyl 4-(3-{6-amino-9-[(2R,5S)-5-(ethylcarbamoyl)-3,4-dihydroxyoxolan-2-yl]purin-2-yl}prop-2-yn-1-yl)cyclohexane-1-carboxylate

> <INCHI_IDENTIFIER>
InChI=1S/C23H30N6O6/c1-3-25-21(32)18-16(30)17(31)22(35-18)29-11-26-15-19(24)27-14(28-20(15)29)6-4-5-12-7-9-13(10-8-12)23(33)34-2/h11-13,16-18,22,30-31H,3,5,7-10H2,1-2H3,(H,25,32)(H2,24,27,28)/t12?,13?,16?,17?,18-,22+/m0/s1

> <INCHI_KEY>
InChIKey=FLEVIENZILQUKB-FFFDGBMNSA-N

> <SMILES>
CCNC(=O)[C@H]1O[C@H](C(O)C1O)N1C=NC2=C(N)N=C(N=C12)C#CCC1CCC(CC1)C(=O)OC

> <JCHEM_ACCEPTOR_COUNT>
9

> <JCHEM_DONOR_COUNT>
4

> <JCHEM_ACIDIC_PKA>
12.39

> <JCHEM_BASIC_PKA>
2.97

> <JCHEM_PHYSIOLOGICAL_CHARGE>
0

> <ALOGPS_LOGP>
1.3

> <JCHEM_LOGP>
0.89

> <ALOGPS_LOGS>
-3.6

> <JCHEM_POLARIZABILITY>
50.82

> <JCHEM_POLAR_SURFACE_AREA>
174.71

> <JCHEM_REFRACTIVITY>
121.62

> <JCHEM_ROTATABLE_BOND_COUNT>
8

> <ALOGPS_SOLUBILITY>
1.16e-01 g/l __ 

$$$$
