
  Mrv0541 02231218072D          

 30 33  0  0  1  0            999 V2000
    6.6263    1.5366    0.0000 O   0  0  0  0  0  0  0  0  0  0  0  0
    7.4634    2.0559    0.0000 O   0  0  0  0  0  0  0  0  0  0  0  0
    8.9696    1.3822    0.0000 O   0  0  0  0  0  0  0  0  0  0  0  0
    1.6500   -2.0181    0.0000 O   0  0  0  0  0  0  0  0  0  0  0  0
    9.8075    0.2246    0.0000 O   0  0  0  0  0  0  0  0  0  0  0  0
    6.0993    0.5001    0.0000 C   0  0  1  0  0  0  0  0  0  0  0  0
    6.0993   -0.3249    0.0000 C   0  0  2  0  0  0  0  0  0  0  0  0
    5.3849   -0.7374    0.0000 C   0  0  1  0  0  0  0  0  0  0  0  0
    6.8799    0.7515    0.0000 C   0  0  1  0  0  0  0  0  0  0  0  0
    6.8799   -0.5763    0.0000 C   0  0  0  0  0  0  0  0  0  0  0  0
    7.3614    0.0876    0.0000 C   0  0  0  0  0  0  0  0  0  0  0  0
    5.3849    0.9126    0.0000 C   0  0  0  0  0  0  0  0  0  0  0  0
    4.6703   -0.3249    0.0000 C   0  0  0  0  0  0  0  0  0  0  0  0
    3.9196   -0.7431    0.0000 C   0  0  2  0  0  0  0  0  0  0  0  0
    5.3981   -1.5966    0.0000 C   0  0  0  0  0  0  0  0  0  0  0  0
    6.0993    1.3251    0.0000 C   0  0  0  0  0  0  0  0  0  0  0  0
    4.6703    0.5001    0.0000 C   0  0  0  0  0  0  0  0  0  0  0  0
    4.6572   -2.0321    0.0000 C   0  0  0  0  0  0  0  0  0  0  0  0
    3.9130   -1.6024    0.0000 C   0  0  0  0  0  0  0  0  0  0  0  0
    7.5482    1.2353    0.0000 C   0  0  0  0  0  0  0  0  0  0  0  0
    3.1550   -0.2777    0.0000 C   0  0  0  0  0  0  0  0  0  0  0  0
    3.9259    0.0819    0.0000 C   0  0  0  0  0  0  0  0  0  0  0  0
    2.3729   -0.7132    0.0000 C   0  0  0  0  0  0  0  0  0  0  0  0
    3.1413   -2.0559    0.0000 C   0  0  0  0  0  0  0  0  0  0  0  0
    8.3013    0.8984    0.0000 C   0  0  0  0  0  0  0  0  0  0  0  0
    2.3660   -1.6083    0.0000 C   0  0  0  0  0  0  0  0  0  0  0  0
    9.7227    1.0453    0.0000 C   0  0  0  0  0  0  0  0  0  0  0  0
   10.3910    1.5291    0.0000 C   0  0  0  0  0  0  0  0  0  0  0  0
    6.1691   -0.9812    0.0000 H   0  0  0  0  0  0  0  0  0  0  0  0
    5.9589   -1.0630    0.0000 H   0  0  0  0  0  0  0  0  0  0  0  0
  9  1  1  6  0  0  0
  2 20  2  0  0  0  0
  3 25  1  0  0  0  0
  3 27  1  0  0  0  0
  4 26  2  0  0  0  0
  5 27  2  0  0  0  0
  6  7  1  0  0  0  0
  6  9  1  0  0  0  0
  6 12  1  0  0  0  0
  6 16  1  1  0  0  0
  7  8  1  0  0  0  0
  7 10  1  0  0  0  0
  7 29  1  6  0  0  0
  8 13  1  0  0  0  0
  8 15  1  0  0  0  0
  8 30  1  1  0  0  0
  9 11  1  0  0  0  0
  9 20  1  0  0  0  0
 10 11  1  0  0  0  0
 12 17  1  0  0  0  0
 13 14  1  0  0  0  0
 13 17  2  0  0  0  0
 14 19  1  0  0  0  0
 14 21  1  0  0  0  0
 14 22  1  1  0  0  0
 15 18  1  0  0  0  0
 18 19  1  0  0  0  0
 19 24  2  0  0  0  0
 20 25  1  0  0  0  0
 21 23  1  0  0  0  0
 23 26  1  0  0  0  0
 24 26  1  0  0  0  0
 27 28  1  0  0  0  0
M  END
> <DRUGBANK_ID>
DB05288

> <DRUG_GROUPS>
investigational

> <GENERIC_NAME>
anecortave acetate

> <BRANDS>


> <CHEMICAL_FORMULA>
C23H30O5

> <MOLECULAR_WEIGHT>
386.4813

> <EXACT_MASS>
386.20932407

> <IUPAC_NAME>
2-[(2S,10S,11S,14R,15S)-14-hydroxy-2,15-dimethyl-5-oxotetracyclo[8.7.0.0^{2,7}.0^{11,15}]heptadeca-1(17),6-dien-14-yl]-2-oxoethyl acetate

> <IUPAC_TRADITIONAL_NAME>
anecortave

> <INCHI_IDENTIFIER>
InChI=1S/C23H30O5/c1-14(24)28-13-20(26)23(27)11-8-19-17-5-4-15-12-16(25)6-9-21(15,2)18(17)7-10-22(19,23)3/h7,12,17,19,27H,4-6,8-11,13H2,1-3H3/t17-,19+,21+,22+,23+/m1/s1

> <INCHI_KEY>
InChIKey=YUWPMEXLKGOSBF-GACAOOTBSA-N

> <SMILES>
[H][C@@]12CC[C@](O)(C(=O)COC(C)=O)[C@@]1(C)CC=C1[C@@]2([H])CCC2=CC(=O)CC[C@]12C

> <JCHEM_ACCEPTOR_COUNT>
4

> <JCHEM_DONOR_COUNT>
1

> <JCHEM_ACIDIC_PKA>
12.61

> <JCHEM_BASIC_PKA>
-3.8

> <JCHEM_PHYSIOLOGICAL_CHARGE>
0

> <ALOGPS_LOGP>
3.33

> <JCHEM_LOGP>
2.62

> <ALOGPS_LOGS>
-4.5

> <JCHEM_POLARIZABILITY>
42.44

> <JCHEM_POLAR_SURFACE_AREA>
80.67

> <JCHEM_REFRACTIVITY>
105.81

> <JCHEM_ROTATABLE_BOND_COUNT>
4

> <ALOGPS_SOLUBILITY>
1.13e-02 g/l __ 

$$$$
