
  Mrv0541 02231218112D          

 34 38  0  0  0  0            999 V2000
    3.0695    0.8008    0.0000 O   0  0  0  0  0  0  0  0  0  0  0  0
    2.0930   -3.9286    0.0000 O   0  0  0  0  0  0  0  0  0  0  0  0
    8.7987   -3.1036    0.0000 O   0  0  0  0  0  0  0  0  0  0  0  0
    3.0311    2.9833    0.0000 N   0  0  0  0  0  0  0  0  0  0  0  0
    5.0171   -2.4397    0.0000 N   0  0  0  0  0  0  0  0  0  0  0  0
    2.4802    3.5973    0.0000 C   0  0  0  0  0  0  0  0  0  0  0  0
    3.8384    3.1534    0.0000 C   0  0  0  0  0  0  0  0  0  0  0  0
    2.7364    4.3815    0.0000 C   0  0  0  0  0  0  0  0  0  0  0  0
    4.0947    3.9376    0.0000 C   0  0  0  0  0  0  0  0  0  0  0  0
    3.5437    4.5516    0.0000 C   0  0  0  0  0  0  0  0  0  0  0  0
    2.7748    2.1991    0.0000 C   0  0  0  0  0  0  0  0  0  0  0  0
    3.3258    1.5850    0.0000 C   0  0  0  0  0  0  0  0  0  0  0  0
    5.4986   -3.1036    0.0000 C   0  0  0  0  0  0  0  0  0  0  0  0
    4.2365   -2.6910    0.0000 C   0  0  0  0  0  0  0  0  0  0  0  0
    5.0171   -3.7674    0.0000 C   0  0  0  0  0  0  0  0  0  0  0  0
    4.2365   -3.5161    0.0000 C   0  0  0  0  0  0  0  0  0  0  0  0
    5.2734   -1.6554    0.0000 C   0  0  0  0  0  0  0  0  0  0  0  0
    4.7225   -1.0413    0.0000 C   0  0  0  0  0  0  0  0  0  0  0  0
    6.3236   -3.1036    0.0000 C   0  0  0  0  0  0  0  0  0  0  0  0
    3.5220   -2.2785    0.0000 C   0  0  0  0  0  0  0  0  0  0  0  0
    3.5220   -3.9286    0.0000 C   0  0  0  0  0  0  0  0  0  0  0  0
    5.2734   -4.5516    0.0000 C   0  0  0  0  0  0  0  0  0  0  0  0
    3.6205    0.1868    0.0000 C   0  0  0  0  0  0  0  0  0  0  0  0
    3.9151   -1.2115    0.0000 C   0  0  0  0  0  0  0  0  0  0  0  0
    4.9787   -0.2572    0.0000 C   0  0  0  0  0  0  0  0  0  0  0  0
    2.8075   -3.5161    0.0000 C   0  0  0  0  0  0  0  0  0  0  0  0
    2.8075   -2.6910    0.0000 C   0  0  0  0  0  0  0  0  0  0  0  0
    3.3642   -0.5975    0.0000 C   0  0  0  0  0  0  0  0  0  0  0  0
    4.4278    0.3569    0.0000 C   0  0  0  0  0  0  0  0  0  0  0  0
    6.7361   -2.3891    0.0000 C   0  0  0  0  0  0  0  0  0  0  0  0
    6.7361   -3.8180    0.0000 C   0  0  0  0  0  0  0  0  0  0  0  0
    7.5611   -2.3891    0.0000 C   0  0  0  0  0  0  0  0  0  0  0  0
    7.5611   -3.8180    0.0000 C   0  0  0  0  0  0  0  0  0  0  0  0
    7.9736   -3.1036    0.0000 C   0  0  0  0  0  0  0  0  0  0  0  0
  1 12  1  0  0  0  0
  1 23  1  0  0  0  0
  2 26  1  0  0  0  0
  3 34  1  0  0  0  0
  4  6  1  0  0  0  0
  4  7  1  0  0  0  0
  4 11  1  0  0  0  0
  5 13  1  0  0  0  0
  5 14  1  0  0  0  0
  5 17  1  0  0  0  0
  6  8  1  0  0  0  0
  7  9  1  0  0  0  0
  8 10  1  0  0  0  0
  9 10  1  0  0  0  0
 11 12  1  0  0  0  0
 13 15  2  0  0  0  0
 13 19  1  0  0  0  0
 14 16  2  0  0  0  0
 14 20  1  0  0  0  0
 15 16  1  0  0  0  0
 15 22  1  0  0  0  0
 16 21  1  0  0  0  0
 17 18  1  0  0  0  0
 18 24  2  0  0  0  0
 18 25  1  0  0  0  0
 19 30  2  0  0  0  0
 19 31  1  0  0  0  0
 20 27  2  0  0  0  0
 21 26  2  0  0  0  0
 23 28  2  0  0  0  0
 23 29  1  0  0  0  0
 24 28  1  0  0  0  0
 25 29  2  0  0  0  0
 26 27  1  0  0  0  0
 30 32  1  0  0  0  0
 31 33  2  0  0  0  0
 32 34  2  0  0  0  0
 33 34  1  0  0  0  0
M  END
> <DRUGBANK_ID>
DB05414

> <DRUG_GROUPS>
investigational

> <GENERIC_NAME>
ERA-923

> <CHEMICAL_FORMULA>
C29H32N2O3

> <MOLECULAR_WEIGHT>
456.576

> <EXACT_MASS>
456.2412929

> <IUPAC_NAME>
2-(4-hydroxyphenyl)-3-methyl-1-({4-[2-(piperidin-1-yl)ethoxy]phenyl}methyl)-1H-indol-5-ol

> <IUPAC_TRADITIONAL_NAME>
pipendoxifene

> <INCHI_IDENTIFIER>
InChI=1S/C29H32N2O3/c1-21-27-19-25(33)11-14-28(27)31(29(21)23-7-9-24(32)10-8-23)20-22-5-12-26(13-6-22)34-18-17-30-15-3-2-4-16-30/h5-14,19,32-33H,2-4,15-18,20H2,1H3

> <INCHI_KEY>
InChIKey=JICOGKJOQXTAIP-UHFFFAOYSA-N

> <SMILES>
CC1=C(N(CC2=CC=C(OCCN3CCCCC3)C=C2)C2=C1C=C(O)C=C2)C1=CC=C(O)C=C1

> <JCHEM_ACCEPTOR_COUNT>
4

> <JCHEM_DONOR_COUNT>
2

> <JCHEM_ACIDIC_PKA>
9.51

> <JCHEM_BASIC_PKA>
8.77

> <JCHEM_PHYSIOLOGICAL_CHARGE>
1

> <ALOGPS_LOGP>
5.75

> <JCHEM_LOGP>
5.82

> <ALOGPS_LOGS>
-5.7

> <JCHEM_POLARIZABILITY>
52.18

> <JCHEM_POLAR_SURFACE_AREA>
57.86

> <JCHEM_REFRACTIVITY>
137.29

> <JCHEM_ROTATABLE_BOND_COUNT>
7

> <ALOGPS_SOLUBILITY>
9.33e-04 g/l __ 

$$$$
