
  Mrv0541 02231218082D          

  5  4  0  0  0  0            999 V2000
    2.0930    0.6188    0.0000 O   0  0  0  0  0  0  0  0  0  0  0  0
    2.8075   -0.6188    0.0000 O   0  0  0  0  0  0  0  0  0  0  0  0
    3.5220    0.6188    0.0000 C   0  0  0  0  0  0  0  0  0  0  0  0
    2.8075    0.2063    0.0000 C   0  0  0  0  0  0  0  0  0  0  0  0
    4.2365    0.2063    0.0000 C   0  0  0  0  0  0  0  0  0  0  0  0
  1  4  1  0  0  0  0
  2  4  2  0  0  0  0
  3  4  1  0  0  0  0
  3  5  2  0  0  0  0
M  END
> <DRUGBANK_ID>
DB05384

> <DRUG_GROUPS>
investigational

> <GENERIC_NAME>
polyacrylic acid

> <BRANDS>


> <CHEMICAL_FORMULA>
C3H4O2

> <MOLECULAR_WEIGHT>
72.0627

> <EXACT_MASS>
72.021129372

> <IUPAC_NAME>
prop-2-enoic acid

> <IUPAC_TRADITIONAL_NAME>
acrylic acid

> <INCHI_IDENTIFIER>
InChI=1S/C3H4O2/c1-2-3(4)5/h2H,1H2,(H,4,5)

> <INCHI_KEY>
InChIKey=NIXOWILDQLNWCW-UHFFFAOYSA-N

> <SMILES>
OC(=O)C=C

> <JCHEM_ACCEPTOR_COUNT>
2

> <JCHEM_DONOR_COUNT>
1

> <JCHEM_ACIDIC_PKA>
4.72

> <JCHEM_PHYSIOLOGICAL_CHARGE>
-1

> <ALOGPS_LOGP>
0.46

> <JCHEM_LOGP>
0.53

> <ALOGPS_LOGS>
0.23

> <JCHEM_POLARIZABILITY>
6.38

> <JCHEM_POLAR_SURFACE_AREA>
37.3

> <JCHEM_REFRACTIVITY>
17.29

> <JCHEM_ROTATABLE_BOND_COUNT>
1

> <ALOGPS_SOLUBILITY>
1.23e+02 g/l __ 

$$$$
