
  Mrv0541 02231218062D          

 28 30  0  0  0  0            999 V2000
    3.0791    0.4125    0.0000 N   0  0  0  0  0  0  0  0  0  0  0  0
    3.7935    1.6500    0.0000 N   0  0  0  0  0  0  0  0  0  0  0  0
    4.5080    2.8876    0.0000 N   0  0  0  0  0  0  0  0  0  0  0  0
    5.2224    1.6500    0.0000 N   0  0  0  0  0  0  0  0  0  0  0  0
    2.3645   -4.9501    0.0000 N   0  0  0  0  0  0  0  0  0  0  0  0
    8.0804    4.9501    0.0000 N   0  0  0  0  0  0  0  0  0  0  0  0
    3.0791   -0.4125    0.0000 C   0  0  0  0  0  0  0  0  0  0  0  0
    2.3645   -0.8250    0.0000 C   0  0  0  0  0  0  0  0  0  0  0  0
    3.7935   -0.8250    0.0000 C   0  0  0  0  0  0  0  0  0  0  0  0
    3.0791   -2.0625    0.0000 C   0  0  0  0  0  0  0  0  0  0  0  0
    2.3645   -1.6500    0.0000 C   0  0  0  0  0  0  0  0  0  0  0  0
    3.7935   -1.6500    0.0000 C   0  0  0  0  0  0  0  0  0  0  0  0
    1.6500   -0.4125    0.0000 C   0  0  0  0  0  0  0  0  0  0  0  0
    4.5080   -0.4125    0.0000 C   0  0  0  0  0  0  0  0  0  0  0  0
    3.7935    0.8250    0.0000 C   0  0  0  0  0  0  0  0  0  0  0  0
    3.0791   -2.8876    0.0000 C   0  0  0  0  0  0  0  0  0  0  0  0
    4.5080    0.4125    0.0000 C   0  0  0  0  0  0  0  0  0  0  0  0
    4.5080    2.0625    0.0000 C   0  0  0  0  0  0  0  0  0  0  0  0
    5.2224    3.3001    0.0000 C   0  0  0  0  0  0  0  0  0  0  0  0
    5.2224    0.8250    0.0000 C   0  0  0  0  0  0  0  0  0  0  0  0
    5.9370    2.8876    0.0000 C   0  0  0  0  0  0  0  0  0  0  0  0
    5.2224    4.1251    0.0000 C   0  0  0  0  0  0  0  0  0  0  0  0
    2.3645   -3.3001    0.0000 C   0  0  0  0  0  0  0  0  0  0  0  0
    6.6515    3.3001    0.0000 C   0  0  0  0  0  0  0  0  0  0  0  0
    5.9370    4.5376    0.0000 C   0  0  0  0  0  0  0  0  0  0  0  0
    6.6515    4.1251    0.0000 C   0  0  0  0  0  0  0  0  0  0  0  0
    2.3645   -4.1251    0.0000 C   0  0  0  0  0  0  0  0  0  0  0  0
    7.3659    4.5376    0.0000 C   0  0  0  0  0  0  0  0  0  0  0  0
  1  7  1  0  0  0  0
  1 15  1  0  0  0  0
  2 15  2  0  0  0  0
  2 18  1  0  0  0  0
  3 18  1  0  0  0  0
  3 19  1  0  0  0  0
  4 18  2  0  0  0  0
  4 20  1  0  0  0  0
  5 27  3  0  0  0  0
  6 28  3  0  0  0  0
  7  8  2  0  0  0  0
  7  9  1  0  0  0  0
  8 11  1  0  0  0  0
  8 13  1  0  0  0  0
  9 12  2  0  0  0  0
  9 14  1  0  0  0  0
 10 11  2  0  0  0  0
 10 12  1  0  0  0  0
 10 16  1  0  0  0  0
 15 17  1  0  0  0  0
 16 23  2  0  0  0  0
 17 20  2  0  0  0  0
 19 21  2  0  0  0  0
 19 22  1  0  0  0  0
 21 24  1  0  0  0  0
 22 25  2  0  0  0  0
 23 27  1  0  0  0  0
 24 26  2  0  0  0  0
 25 26  1  0  0  0  0
 26 28  1  0  0  0  0
M  END
> <DRUGBANK_ID>
DB05083

> <DRUG_GROUPS>
investigational

> <GENERIC_NAME>
TMC278

> <CHEMICAL_FORMULA>
C22H18N6

> <MOLECULAR_WEIGHT>
366.4185

> <EXACT_MASS>
366.159294606

> <IUPAC_NAME>
4-{[4-({4-[(1E)-2-cyanoeth-1-en-1-yl]-2,6-dimethylphenyl}amino)pyrimidin-2-yl]amino}benzonitrile

> <IUPAC_TRADITIONAL_NAME>
rilpivirine

> <INCHI_IDENTIFIER>
InChI=1S/C22H18N6/c1-15-12-18(4-3-10-23)13-16(2)21(15)27-20-9-11-25-22(28-20)26-19-7-5-17(14-24)6-8-19/h3-9,11-13H,1-2H3,(H2,25,26,27,28)/b4-3+

> <INCHI_KEY>
InChIKey=YIBOMRUWOWDFLG-ONEGZZNKSA-N

> <SMILES>
CC1=CC(\C=C\C#N)=CC(C)=C1NC1=NC(NC2=CC=C(C=C2)C#N)=NC=C1

> <JCHEM_ACCEPTOR_COUNT>
6

> <JCHEM_DONOR_COUNT>
2

> <JCHEM_ACIDIC_PKA>
12.93

> <JCHEM_BASIC_PKA>
5.16

> <JCHEM_PHYSIOLOGICAL_CHARGE>
0

> <ALOGPS_LOGP>
3.8

> <JCHEM_LOGP>
5.47

> <ALOGPS_LOGS>
-4.5

> <JCHEM_POLARIZABILITY>
40.65

> <JCHEM_POLAR_SURFACE_AREA>
97.42

> <JCHEM_REFRACTIVITY>
111.74

> <JCHEM_ROTATABLE_BOND_COUNT>
5

> <ALOGPS_SOLUBILITY>
1.16e-02 g/l __ 

$$$$
