
  Mrv0541 02231218142D          

 22 23  0  0  0  0            999 V2000
    1.6500   -0.6188    0.0000 Cl   0  0  0  0  0  0  0  0  0  0  0  0
    6.6515    1.4438    0.0000 S    0  0  0  0  0  0  0  0  0  0  0  0
    4.5080   -2.2688    0.0000 S    0  0  0  0  0  0  0  0  0  0  0  0
    3.7935    1.4438    0.0000 N    0  0  0  0  0  0  0  0  0  0  0  0
    3.0791    0.2063    0.0000 N    0  0  0  0  0  0  0  0  0  0  0  0
    4.5080    0.2063    0.0000 N    0  0  0  0  0  0  0  0  0  0  0  0
    4.5080    1.8563    0.0000 C    0  0  0  0  0  0  0  0  0  0  0  0
    5.2224    1.4438    0.0000 C    0  0  0  0  0  0  0  0  0  0  0  0
    3.7935    0.6188    0.0000 C    0  0  0  0  0  0  0  0  0  0  0  0
    4.5080    2.6813    0.0000 C    0  0  0  0  0  0  0  0  0  0  0  0
    3.0791    1.8563    0.0000 C    0  0  0  0  0  0  0  0  0  0  0  0
    5.9370    1.8563    0.0000 C    0  0  0  0  0  0  0  0  0  0  0  0
    3.0791   -0.6188    0.0000 C    0  0  0  0  0  0  0  0  0  0  0  0
    5.2224    3.0938    0.0000 C    0  0  0  0  0  0  0  0  0  0  0  0
    5.9370    2.6813    0.0000 C    0  0  0  0  0  0  0  0  0  0  0  0
    3.7935   -1.0313    0.0000 C    0  0  0  0  0  0  0  0  0  0  0  0
    2.3645   -1.0313    0.0000 C    0  0  0  0  0  0  0  0  0  0  0  0
    3.7935   -1.8563    0.0000 C    0  0  0  0  0  0  0  0  0  0  0  0
    2.3645   -1.8563    0.0000 C    0  0  0  0  0  0  0  0  0  0  0  0
    3.0791   -2.2688    0.0000 C    0  0  0  0  0  0  0  0  0  0  0  0
    7.3659    1.8563    0.0000 C    0  0  0  0  0  0  0  0  0  0  0  0
    4.5080   -3.0938    0.0000 C    0  0  0  0  0  0  0  0  0  0  0  0
  1 17  1  0  0  0  0
  2 12  1  0  0  0  0
  2 21  1  0  0  0  0
  3 18  1  0  0  0  0
  3 22  1  0  0  0  0
  4  7  1  0  0  0  0
  4  9  1  0  0  0  0
  4 11  1  0  0  0  0
  5  9  2  0  0  0  0
  5 13  1  0  0  0  0
  6  9  1  0  0  0  0
  7  8  2  0  0  0  0
  7 10  1  0  0  0  0
  8 12  1  0  0  0  0
 10 14  2  0  0  0  0
 12 15  2  0  0  0  0
 13 16  1  0  0  0  0
 13 17  2  0  0  0  0
 14 15  1  0  0  0  0
 16 18  2  0  0  0  0
 17 19  1  0  0  0  0
 18 20  1  0  0  0  0
 19 20  2  0  0  0  0
M  END
> <DRUGBANK_ID>
DB05824

> <DRUG_GROUPS>
investigational

> <GENERIC_NAME>
CNS-5161

> <CHEMICAL_FORMULA>
C16H18ClN3S2

> <MOLECULAR_WEIGHT>
351.917

> <EXACT_MASS>
351.063066678

> <IUPAC_NAME>
(E)-2-[2-chloro-5-(methylsulfanyl)phenyl]-1-methyl-1-[3-(methylsulfanyl)phenyl]guanidine

> <IUPAC_TRADITIONAL_NAME>
(E)-2-[2-chloro-5-(methylsulfanyl)phenyl]-1-methyl-1-[3-(methylsulfanyl)phenyl]guanidine

> <INCHI_IDENTIFIER>
InChI=1S/C16H18ClN3S2/c1-20(11-5-4-6-12(9-11)21-2)16(18)19-15-10-13(22-3)7-8-14(15)17/h4-10H,1-3H3,(H2,18,19)

> <INCHI_KEY>
InChIKey=JHVHEDNLONERHY-UHFFFAOYSA-N

> <SMILES>
CSC1=CC(\N=C(/N)N(C)C2=CC(SC)=CC=C2)=C(Cl)C=C1

> <JCHEM_ACCEPTOR_COUNT>
3

> <JCHEM_DONOR_COUNT>
1

> <JCHEM_BASIC_PKA>
8.51

> <JCHEM_PHYSIOLOGICAL_CHARGE>
1

> <ALOGPS_LOGP>
4.05

> <JCHEM_LOGP>
4.79

> <ALOGPS_LOGS>
-5.7

> <JCHEM_POLARIZABILITY>
37.49

> <JCHEM_POLAR_SURFACE_AREA>
41.62

> <JCHEM_REFRACTIVITY>
103.02

> <JCHEM_ROTATABLE_BOND_COUNT>
4

> <ALOGPS_SOLUBILITY>
7.60e-04 g/l __ 

$$$$
