[NO NAME]
  Mrv0541 04181215012D          
Created with ChemWriter - http://chemwriter.com
  7  5  0  0  0  0            999 V2000
    1.8719    1.7490    0.0000 C   0  0  0  0  0  0  0  0  0  0  0  0
    1.1575    0.5115    0.0000 C   0  0  0  0  0  0  0  0  0  0  0  0
    1.1575    1.3365    0.0000 C   0  0  0  0  0  0  0  0  0  0  0  0
    2.6061    0.0180    0.0000 N   0  3  0  0  0  0  0  0  0  0  0  0
    1.8719    2.5740    0.0000 O   0  0  0  0  0  0  0  0  0  0  0  0
    2.5864    1.3365    0.0000 O   0  5  0  0  0  0  0  0  0  0  0  0
    0.4429    1.7490    0.0000 O   0  0  0  0  0  0  0  0  0  0  0  0
  3  1  1  0  0  0  0
  3  2  1  0  0  0  0
  5  1  2  0  0  0  0
  6  1  1  0  0  0  0
  7  3  1  0  0  0  0
M  END
> <DRUGBANK_ID>
DB06768

> <DRUG_GROUPS>
approved

> <GENERIC_NAME>
Ammonium lactate

> <SYNONYMS>
Ammonium (+-)-lactate; Lactic acid ammonium salt

> <BRANDS>
Amlactin; Lac-Hydrin; Laclotion

> <CHEMICAL_FORMULA>
C3H9NO3

> <MOLECULAR_WEIGHT>
107.1085

> <EXACT_MASS>
107.058243159

> <IUPAC_NAME>
ammonium 2-hydroxypropanoate

> <IUPAC_TRADITIONAL_NAME>
ammonium lactate

> <INCHI_IDENTIFIER>
InChI=1S/C3H6O3.H3N/c1-2(4)3(5)6;/h2,4H,1H3,(H,5,6);1H3

> <INCHI_KEY>
InChIKey=RZOBLYBZQXQGFY-UHFFFAOYSA-N

> <SMILES>
[NH4+].CC(O)C([O-])=O

> <JCHEM_ACCEPTOR_COUNT>
3

> <JCHEM_DONOR_COUNT>
1

> <JCHEM_ACIDIC_PKA>
3.78

> <JCHEM_BASIC_PKA>
-3.7

> <JCHEM_PHYSIOLOGICAL_CHARGE>
-1

> <ALOGPS_LOGP>
-0.51

> <JCHEM_LOGP>
-0.47

> <ALOGPS_LOGS>
0.91

> <JCHEM_POLARIZABILITY>
7.65

> <JCHEM_POLAR_SURFACE_AREA>
60.36

> <JCHEM_REFRACTIVITY>
29.68

> <JCHEM_ROTATABLE_BOND_COUNT>
1

> <ALOGPS_SOLUBILITY>
8.66e+02 g/l __ 

$$$$
