221
  Mrv0541 02241213042D          

 25 25  0  0  0  0            999 V2000
   -0.6813    2.1077    0.0000 C   0  0  0  0  0  0  0  0  0  0  0  0
    0.0332    2.5202    0.0000 C   0  0  0  0  0  0  0  0  0  0  0  0
    0.7477    2.1077    0.0000 C   0  0  0  0  0  0  0  0  0  0  0  0
    0.7477    1.2827    0.0000 C   0  0  0  0  0  0  0  0  0  0  0  0
    0.0332    0.8702    0.0000 C   0  0  0  0  0  0  0  0  0  0  0  0
   -0.6813    1.2827    0.0000 C   0  0  0  0  0  0  0  0  0  0  0  0
    0.0332    3.3452    0.0000 C   0  0  0  0  0  0  0  0  0  0  0  0
   -1.3958    0.8702    0.0000 C   0  0  0  0  0  0  0  0  0  0  0  0
    1.4621    0.8702    0.0000 N   0  0  0  0  0  0  0  0  0  0  0  0
    1.4621    0.0452    0.0000 C   0  0  1  0  0  0  0  0  0  0  0  0
    2.1766   -0.3673    0.0000 C   0  0  2  0  0  0  0  0  0  0  0  0
    2.1766   -1.1923    0.0000 C   0  0  0  0  0  0  0  0  0  0  0  0
    2.8911   -1.6048    0.0000 N   0  0  0  0  0  0  0  0  0  0  0  0
    0.7477   -0.3673    0.0000 S   0  0  0  0  0  0  0  0  0  0  0  0
    1.4621   -1.6048    0.0000 O   0  0  0  0  0  0  0  0  0  0  0  0
    2.8911    0.0452    0.0000 C   0  0  0  0  0  0  0  0  0  0  0  0
    3.6055    0.4577    0.0000 N   0  0  0  0  0  0  0  0  0  0  0  0
    0.0332    4.1702    0.0000 F   0  0  0  0  0  0  0  0  0  0  0  0
    0.8582    3.3452    0.0000 F   0  0  0  0  0  0  0  0  0  0  0  0
   -0.7918    3.3452    0.0000 F   0  0  0  0  0  0  0  0  0  0  0  0
   -0.9833    0.1557    0.0000 F   0  0  0  0  0  0  0  0  0  0  0  0
   -2.1102    0.4577    0.0000 F   0  0  0  0  0  0  0  0  0  0  0  0
   -1.8083    1.5847    0.0000 F   0  0  0  0  0  0  0  0  0  0  0  0
    1.9769    0.1814    0.0000 H   0  0  0  0  0  0  0  0  0  0  0  0
    1.8375    0.4925    0.0000 H   0  0  0  0  0  0  0  0  0  0  0  0
  1  2  2  0  0  0  0
  1  6  1  0  0  0  0
  2  3  1  0  0  0  0
  2  7  1  0  0  0  0
  3  4  2  0  0  0  0
  4  9  1  0  0  0  0
  4  5  1  0  0  0  0
  5  6  2  0  0  0  0
  6  8  1  0  0  0  0
  7 19  1  0  0  0  0
  7 18  1  0  0  0  0
  7 20  1  0  0  0  0
  8 22  1  0  0  0  0
  8 21  1  0  0  0  0
  8 23  1  0  0  0  0
  9 10  1  0  0  0  0
 10 11  1  0  0  0  0
 10 14  1  6  0  0  0
 10 25  1  6  0  0  0
 11 16  1  0  0  0  0
 11 12  1  6  0  0  0
 11 24  1  6  0  0  0
 12 13  1  0  0  0  0
 12 15  2  0  0  0  0
 16 17  3  0  0  0  0
M  END
> <DRUGBANK_ID>
DB06913

> <DRUG_GROUPS>
experimental

> <GENERIC_NAME>
(2R,3R)-3-{[3,5-BIS(TRIFLUOROMETHYL)PHENYL]AMINO}-2-CYANO-3-THIOXOPROPANAMIDE

> <CHEMICAL_FORMULA>
C12H9F6N3OS

> <MOLECULAR_WEIGHT>
357.275

> <EXACT_MASS>
357.037051845

> <IUPAC_NAME>
(2S)-2-[(R)-{[3,5-bis(trifluoromethyl)phenyl]amino}(sulfanyl)methyl]-2-cyanoacetamide

> <IUPAC_TRADITIONAL_NAME>
(2S)-2-[(R)-{[3,5-bis(trifluoromethyl)phenyl]amino}(sulfanyl)methyl]-2-cyanoacetamide

> <INCHI_IDENTIFIER>
InChI=1S/C12H9F6N3OS/c13-11(14,15)5-1-6(12(16,17)18)3-7(2-5)21-10(23)8(4-19)9(20)22/h1-3,8,10,21,23H,(H2,20,22)/t8-,10+/m0/s1

> <INCHI_KEY>
InChIKey=ZTUMRSFHUOBXAC-WCBMZHEXSA-N

> <SMILES>
[H][C@](S)(NC1=CC(=CC(=C1)C(F)(F)F)C(F)(F)F)[C@@]([H])(C#N)C(N)=O

> <JCHEM_ACCEPTOR_COUNT>
3

> <JCHEM_DONOR_COUNT>
3

> <JCHEM_ACIDIC_PKA>
6.87

> <JCHEM_BASIC_PKA>
1.58

> <JCHEM_PHYSIOLOGICAL_CHARGE>
0

> <ALOGPS_LOGP>
3.57

> <JCHEM_LOGP>
2.51

> <ALOGPS_LOGS>
-4.1

> <JCHEM_POLARIZABILITY>
27.01

> <JCHEM_POLAR_SURFACE_AREA>
78.91

> <JCHEM_REFRACTIVITY>
73.33

> <JCHEM_ROTATABLE_BOND_COUNT>
6

> <ALOGPS_SOLUBILITY>
3.04e-02 g/l __ 

$$$$
