319
  Mrv0541 02241213072D          

 29 31  0  0  0  0            999 V2000
   -4.3943   -0.5681    0.0000 C   0  0  0  0  0  0  0  0  0  0  0  0
   -3.6799    0.6694    0.0000 C   0  0  0  0  0  0  0  0  0  0  0  0
    0.6070    0.6694    0.0000 C   0  0  0  0  0  0  0  0  0  0  0  0
    1.3214    1.0819    0.0000 C   0  0  0  0  0  0  0  0  0  0  0  0
   -5.1088   -0.1556    0.0000 C   0  0  0  0  0  0  0  0  0  0  0  0
   -4.3943    1.0819    0.0000 C   0  0  0  0  0  0  0  0  0  0  0  0
    4.1793    1.0819    0.0000 C   0  0  0  0  0  0  0  0  0  0  0  0
    1.3214   -0.5681    0.0000 C   0  0  0  0  0  0  0  0  0  0  0  0
    3.4648   -0.1556    0.0000 C   0  0  0  0  0  0  0  0  0  0  0  0
    4.8938    0.6694    0.0000 C   0  0  0  0  0  0  0  0  0  0  0  0
   -3.6799   -0.1556    0.0000 C   0  0  0  0  0  0  0  0  0  0  0  0
    0.6070   -0.1556    0.0000 C   0  0  0  0  0  0  0  0  0  0  0  0
    2.0359    0.6694    0.0000 C   0  0  0  0  0  0  0  0  0  0  0  0
    3.4648    0.6694    0.0000 C   0  0  0  0  0  0  0  0  0  0  0  0
   -5.1088    0.6694    0.0000 C   0  0  0  0  0  0  0  0  0  0  0  0
    2.0359   -0.1556    0.0000 C   0  0  0  0  0  0  0  0  0  0  0  0
    4.1793   -0.5681    0.0000 C   0  0  0  0  0  0  0  0  0  0  0  0
   -2.2509   -0.1556    0.0000 C   0  0  0  0  0  0  0  0  0  0  0  0
   -0.8220   -0.1556    0.0000 C   0  0  0  0  0  0  0  0  0  0  0  0
   -2.9654   -0.5681    0.0000 C   0  0  0  0  0  0  0  0  0  0  0  0
    4.8938   -0.1556    0.0000 N   0  0  0  0  0  0  0  0  0  0  0  0
    4.1793   -1.3931    0.0000 N   0  0  0  0  0  0  0  0  0  0  0  0
   -0.1075   -0.5681    0.0000 N   0  0  0  0  0  0  0  0  0  0  0  0
   -1.5365   -0.5681    0.0000 N   0  0  0  0  0  0  0  0  0  0  0  0
   -2.2509    0.6694    0.0000 O   0  0  0  0  0  0  0  0  0  0  0  0
   -0.8220    0.6694    0.0000 O   0  0  0  0  0  0  0  0  0  0  0  0
    2.7504    1.0819    0.0000 O   0  0  0  0  0  0  0  0  0  0  0  0
   -5.8233    1.0819    0.0000 F   0  0  0  0  0  0  0  0  0  0  0  0
    2.7504   -0.5681    0.0000 F   0  0  0  0  0  0  0  0  0  0  0  0
  1  5  2  0  0  0  0
  1 11  1  0  0  0  0
  2  6  1  0  0  0  0
  2 11  2  0  0  0  0
  3  4  2  0  0  0  0
  3 12  1  0  0  0  0
  4 13  1  0  0  0  0
  5 15  1  0  0  0  0
  6 15  2  0  0  0  0
  7 10  2  0  0  0  0
  7 14  1  0  0  0  0
  8 12  2  0  0  0  0
  8 16  1  0  0  0  0
  9 14  2  0  0  0  0
  9 17  1  0  0  0  0
 10 21  1  0  0  0  0
 11 20  1  0  0  0  0
 12 23  1  0  0  0  0
 13 16  2  0  0  0  0
 13 27  1  0  0  0  0
 14 27  1  0  0  0  0
 15 28  1  0  0  0  0
 16 29  1  0  0  0  0
 17 21  2  0  0  0  0
 17 22  1  0  0  0  0
 18 20  1  0  0  0  0
 18 24  1  0  0  0  0
 18 25  2  0  0  0  0
 19 23  1  0  0  0  0
 19 24  1  0  0  0  0
 19 26  2  0  0  0  0
M  END
> <DRUGBANK_ID>
DB06995

> <DRUG_GROUPS>
experimental

> <GENERIC_NAME>
N-({4-[(2-aminopyridin-4-yl)oxy]-3-fluorophenyl}carbamoyl)-2-(4-fluorophenyl)acetamide

> <CHEMICAL_FORMULA>
C20H16F2N4O3

> <MOLECULAR_WEIGHT>
398.3628

> <EXACT_MASS>
398.119046808

> <IUPAC_NAME>
1-{4-[(2-aminopyridin-4-yl)oxy]-3-fluorophenyl}-3-[2-(4-fluorophenyl)acetyl]urea

> <IUPAC_TRADITIONAL_NAME>
1-{4-[(2-aminopyridin-4-yl)oxy]-3-fluorophenyl}-3-[2-(4-fluorophenyl)acetyl]urea

> <INCHI_IDENTIFIER>
InChI=1S/C20H16F2N4O3/c21-13-3-1-12(2-4-13)9-19(27)26-20(28)25-14-5-6-17(16(22)10-14)29-15-7-8-24-18(23)11-15/h1-8,10-11H,9H2,(H2,23,24)(H2,25,26,27,28)

> <INCHI_KEY>
InChIKey=USBSTVPJNQLYEM-UHFFFAOYSA-N

> <SMILES>
NC1=NC=CC(OC2=C(F)C=C(NC(=O)NC(=O)CC3=CC=C(F)C=C3)C=C2)=C1

> <JCHEM_ACCEPTOR_COUNT>
4

> <JCHEM_DONOR_COUNT>
3

> <JCHEM_ACIDIC_PKA>
10.63

> <JCHEM_BASIC_PKA>
7.54

> <JCHEM_PHYSIOLOGICAL_CHARGE>
1

> <ALOGPS_LOGP>
3.05

> <JCHEM_LOGP>
3.03

> <ALOGPS_LOGS>
-5

> <JCHEM_POLARIZABILITY>
37.31

> <JCHEM_POLAR_SURFACE_AREA>
106.34

> <JCHEM_REFRACTIVITY>
103.42

> <JCHEM_ROTATABLE_BOND_COUNT>
5

> <ALOGPS_SOLUBILITY>
3.66e-03 g/l __ 

$$$$
