322
  Mrv0541 02241213082D          

 25 26  0  0  0  0            999 V2000
   -3.1138   -2.7792    0.0000 C    0  0  0  0  0  0  0  0  0  0  0  0
   -0.9834   -2.1980    0.0000 C    0  0  0  0  0  0  0  0  0  0  0  0
   -2.2934   -2.8654    0.0000 C    0  0  0  0  0  0  0  0  0  0  0  0
    0.0330   -0.1034    0.0000 C    0  0  0  0  0  0  0  0  0  0  0  0
   -0.6815    0.3091    0.0000 C    0  0  0  0  0  0  0  0  0  0  0  0
   -1.3959   -0.1034    0.0000 C    0  0  0  0  0  0  0  0  0  0  0  0
    0.7475    0.3091    0.0000 C    0  0  0  0  0  0  0  0  0  0  0  0
    2.1764    0.3091    0.0000 C    0  0  0  0  0  0  0  0  0  0  0  0
    2.8909   -0.1034    0.0000 C    0  0  0  0  0  0  0  0  0  0  0  0
   -1.3959   -0.9284    0.0000 C    0  0  1  0  0  0  0  0  0  0  0  0
   -1.3959    1.5466    0.0000 Br   0  0  0  0  0  0  0  0  0  0  0  0
    0.0330    2.3716    0.0000 Br   0  0  0  0  0  0  0  0  0  0  0  0
   -1.8084   -2.1980    0.0000 N    0  0  0  0  0  0  0  0  0  0  0  0
   -0.7285   -1.4133    0.0000 S    0  0  0  0  0  0  0  0  0  0  0  0
    1.4619   -0.1034    0.0000 O    0  0  0  0  0  0  0  0  0  0  0  0
   -2.0634   -1.4133    0.0000 C    0  0  0  0  0  0  0  0  0  0  0  0
   -0.6815    1.1341    0.0000 C    0  0  0  0  0  0  0  0  0  0  0  0
    0.0330    1.5466    0.0000 C    0  0  0  0  0  0  0  0  0  0  0  0
    0.7475    1.1341    0.0000 C    0  0  0  0  0  0  0  0  0  0  0  0
   -3.5988   -3.4466    0.0000 O    0  0  0  0  0  0  0  0  0  0  0  0
   -0.4985   -2.8654    0.0000 S    0  0  0  0  0  0  0  0  0  0  0  0
   -3.4494   -2.0255    0.0000 O    0  0  0  0  0  0  0  0  0  0  0  0
   -2.8480   -1.1584    0.0000 O    0  0  0  0  0  0  0  0  0  0  0  0
    1.4619    1.5466    0.0000 O    0  0  0  0  0  0  0  0  0  0  0  0
   -1.9162   -0.6633    0.0000 H    0  0  0  0  0  0  0  0  0  0  0  0
  1 22  1  0  0  0  0
  2 13  1  0  0  0  0
  3  1  1  0  0  0  0
  4  5  1  0  0  0  0
  5  6  1  0  0  0  0
  5 17  2  0  0  0  0
  7  4  2  0  0  0  0
  7 19  1  0  0  0  0
  8 15  1  0  0  0  0
  9  8  1  0  0  0  0
 10  6  1  1  0  0  0
 10 16  1  0  0  0  0
 10 25  1  6  0  0  0
 13  3  1  0  0  0  0
 13 16  1  0  0  0  0
 14  2  1  0  0  0  0
 14 10  1  0  0  0  0
 15  7  1  0  0  0  0
 16 23  2  0  0  0  0
 17 11  1  0  0  0  0
 18 12  1  0  0  0  0
 18 17  1  0  0  0  0
 19 18  2  0  0  0  0
 20  1  2  0  0  0  0
 21  2  2  0  0  0  0
 24 19  1  0  0  0  0
M  END
> <DRUGBANK_ID>
DB06998

> <DRUG_GROUPS>
experimental

> <GENERIC_NAME>
[(5R)-5-(2,3-dibromo-5-ethoxy-4-hydroxybenzyl)-4-oxo-2-thioxo-1,3-thiazolidin-3-yl]acetic acid

> <CHEMICAL_FORMULA>
C14H13Br2NO5S2

> <MOLECULAR_WEIGHT>
499.195

> <EXACT_MASS>
496.860189205

> <IUPAC_NAME>
2-[(5R)-5-[(2,3-dibromo-5-ethoxy-4-hydroxyphenyl)methyl]-4-oxo-2-sulfanylidene-1,3-thiazolidin-3-yl]acetic acid

> <IUPAC_TRADITIONAL_NAME>
[(5R)-5-[(2,3-dibromo-5-ethoxy-4-hydroxyphenyl)methyl]-4-oxo-2-sulfanylidene-1,3-thiazolidin-3-yl]acetic acid

> <INCHI_IDENTIFIER>
InChI=1S/C14H13Br2NO5S2/c1-2-22-7-3-6(10(15)11(16)12(7)20)4-8-13(21)17(5-9(18)19)14(23)24-8/h3,8,20H,2,4-5H2,1H3,(H,18,19)/t8-/m1/s1

> <INCHI_KEY>
InChIKey=ABQHPGHMYXJJIV-MRVPVSSYSA-N

> <SMILES>
[H][C@]1(CC2=C(Br)C(Br)=C(O)C(OCC)=C2)SC(=S)N(CC(O)=O)C1=O

> <JCHEM_ACCEPTOR_COUNT>
5

> <JCHEM_DONOR_COUNT>
2

> <JCHEM_ACIDIC_PKA>
2.3

> <JCHEM_BASIC_PKA>
-4.9

> <JCHEM_PHYSIOLOGICAL_CHARGE>
-1

> <ALOGPS_LOGP>
4.14

> <JCHEM_LOGP>
3.97

> <ALOGPS_LOGS>
-4.9

> <JCHEM_POLARIZABILITY>
40.06

> <JCHEM_POLAR_SURFACE_AREA>
87.07

> <JCHEM_REFRACTIVITY>
102.06

> <JCHEM_ROTATABLE_BOND_COUNT>
6

> <ALOGPS_SOLUBILITY>
6.71e-03 g/l __ 

$$$$
