
  Mrv0541 08201311492D          

 16 16  0  0  0  0            999 V2000
    3.0790    1.3159    0.0000 P   0  0  0  0  0  0  0  0  0  0  0  0
    3.7935    0.0784    0.0000 P   0  0  0  0  0  0  0  0  0  0  0  0
    3.0790    2.1409    0.0000 O   0  0  0  0  0  0  0  0  0  0  0  0
    3.9040    1.3159    0.0000 O   0  0  0  0  0  0  0  0  0  0  0  0
    4.5080   -0.3341    0.0000 O   0  0  0  0  0  0  0  0  0  0  0  0
    4.2060    0.7928    0.0000 O   0  0  0  0  0  0  0  0  0  0  0  0
    3.3810   -0.6361    0.0000 O   0  0  0  0  0  0  0  0  0  0  0  0
    2.2539    1.3159    0.0000 O   0  0  0  0  0  0  0  0  0  0  0  0
    2.3645    0.0784    0.0000 N   0  0  0  0  0  0  0  0  0  0  0  0
    2.3645   -0.7466    0.0000 C   0  0  0  0  0  0  0  0  0  0  0  0
    1.6500   -1.1592    0.0000 C   0  0  0  0  0  0  0  0  0  0  0  0
    3.0790   -1.1592    0.0000 C   0  0  0  0  0  0  0  0  0  0  0  0
    3.0790   -1.9842    0.0000 C   0  0  0  0  0  0  0  0  0  0  0  0
    1.6500   -1.9842    0.0000 C   0  0  0  0  0  0  0  0  0  0  0  0
    2.3645   -2.3967    0.0000 C   0  0  0  0  0  0  0  0  0  0  0  0
    3.0790    0.4909    0.0000 C   0  0  0  0  0  0  0  0  0  0  0  0
  1  3  1  0  0  0  0
  1  4  1  0  0  0  0
  1  8  2  0  0  0  0
  1 16  1  0  0  0  0
  2  5  1  0  0  0  0
  2  6  1  0  0  0  0
  2  7  2  0  0  0  0
  2 16  1  0  0  0  0
  9 10  1  0  0  0  0
  9 16  1  0  0  0  0
 10 11  1  0  0  0  0
 10 12  1  0  0  0  0
 11 14  1  0  0  0  0
 12 13  1  0  0  0  0
 13 15  1  0  0  0  0
 14 15  1  0  0  0  0
M  END
> <DRUGBANK_ID>
DB06255

> <DRUG_GROUPS>
approved; investigational

> <GENERIC_NAME>
Incadronate

> <SYNONYMS>
Cimadronate

> <SALTS>
Incadronate disodium hydrate; Incadronate sodium

> <BRANDS>
Bisphonal; Yin Fu

> <CHEMICAL_FORMULA>
C7H17NO6P2

> <MOLECULAR_WEIGHT>
273.1605

> <EXACT_MASS>
273.053110305

> <IUPAC_NAME>
[(cyclohexylamino)(phosphono)methyl]phosphonic acid

> <IUPAC_TRADITIONAL_NAME>
(cyclohexylamino)(phosphono)methylphosphonic acid

> <INCHI_IDENTIFIER>
InChI=1S/C7H17NO6P2/c9-15(10,11)7(16(12,13)14)8-6-4-2-1-3-5-6/h6-8H,1-5H2,(H2,9,10,11)(H2,12,13,14)

> <INCHI_KEY>
InChIKey=GBBBPWVJGMFZGX-UHFFFAOYSA-N

> <SMILES>
OP(O)(=O)C(NC1CCCCC1)P(O)(O)=O

> <JCHEM_ACCEPTOR_COUNT>
7

> <JCHEM_DONOR_COUNT>
5

> <JCHEM_ACIDIC_PKA>
-1.1

> <JCHEM_BASIC_PKA>
5.48

> <JCHEM_PHYSIOLOGICAL_CHARGE>
-2

> <ALOGPS_LOGP>
-0.29

> <JCHEM_LOGP>
-1.8

> <ALOGPS_LOGS>
-1.3

> <JCHEM_POLARIZABILITY>
23.53

> <JCHEM_POLAR_SURFACE_AREA>
127.09

> <JCHEM_REFRACTIVITY>
57.17

> <JCHEM_ROTATABLE_BOND_COUNT>
4

> <ALOGPS_SOLUBILITY>
1.44e+01 g/l __ 

$$$$
