
  Mrv0541 02231218142D          

 27 31  0  0  1  0            999 V2000
    5.5786    1.2227    0.0000 O   0  0  0  0  0  0  0  0  0  0  0  0
    3.8596    1.1722    0.0000 O   0  0  0  0  0  0  0  0  0  0  0  0
    8.2847   -0.6188    0.0000 N   0  0  0  0  0  0  0  0  0  0  0  0
    5.5786   -0.2063    0.0000 N   0  0  0  0  0  0  0  0  0  0  0  0
    9.1304    1.6146    0.0000 N   0  0  0  0  0  0  0  0  0  0  0  0
    7.7014   -1.2021    0.0000 C   0  0  0  0  0  0  0  0  0  0  0  0
    6.4036   -0.2063    0.0000 C   0  0  1  0  0  0  0  0  0  0  0  0
    6.9869    0.3771    0.0000 C   0  0  2  0  0  0  0  0  0  0  0  0
    9.4012   -1.1522    0.0000 C   0  0  0  0  0  0  0  0  0  0  0  0
    7.7014   -2.8521    0.0000 C   0  0  0  0  0  0  0  0  0  0  0  0
    9.4012   -0.3272    0.0000 C   0  0  0  0  0  0  0  0  0  0  0  0
    8.5264   -2.8521    0.0000 C   0  0  0  0  0  0  0  0  0  0  0  0
    6.9869    1.2021    0.0000 C   0  0  0  0  0  0  0  0  0  0  0  0
    7.7014    1.6146    0.0000 C   0  0  0  0  0  0  0  0  0  0  0  0
    5.1661    0.5082    0.0000 C   0  0  0  0  0  0  0  0  0  0  0  0
    7.7014    2.4396    0.0000 C   0  0  0  0  0  0  0  0  0  0  0  0
    8.4158    1.2021    0.0000 C   0  0  0  0  0  0  0  0  0  0  0  0
    4.3411    0.5082    0.0000 C   0  0  0  0  0  0  0  0  0  0  0  0
    8.4158    2.8521    0.0000 C   0  0  0  0  0  0  0  0  0  0  0  0
    3.8596   -0.1557    0.0000 C   0  0  0  0  0  0  0  0  0  0  0  0
    9.1304    2.4396    0.0000 C   0  0  0  0  0  0  0  0  0  0  0  0
    3.0790    0.0957    0.0000 C   0  0  0  0  0  0  0  0  0  0  0  0
    3.0790    0.9207    0.0000 C   0  0  0  0  0  0  0  0  0  0  0  0
    2.3644   -0.3168    0.0000 C   0  0  0  0  0  0  0  0  0  0  0  0
    2.3644    1.3332    0.0000 C   0  0  0  0  0  0  0  0  0  0  0  0
    1.6500    0.0957    0.0000 C   0  0  0  0  0  0  0  0  0  0  0  0
    1.6500    0.9207    0.0000 C   0  0  0  0  0  0  0  0  0  0  0  0
  1 15  2  0  0  0  0
  2 18  1  0  0  0  0
  2 23  1  0  0  0  0
  3  8  1  0  0  0  0
  3 11  1  0  0  0  0
  3 12  1  0  0  0  0
  7  4  1  6  0  0  0
  4 15  1  0  0  0  0
  5 17  1  0  0  0  0
  5 21  2  0  0  0  0
  6  7  1  0  0  0  0
  6  9  1  0  0  0  0
  6 10  1  0  0  0  0
  7  8  1  0  0  0  0
  8 13  1  6  0  0  0
  9 11  1  0  0  0  0
 10 12  1  0  0  0  0
 13 14  1  0  0  0  0
 14 16  1  0  0  0  0
 14 17  2  0  0  0  0
 15 18  1  0  0  0  0
 16 19  2  0  0  0  0
 18 20  2  0  0  0  0
 19 21  1  0  0  0  0
 20 22  1  0  0  0  0
 22 23  1  0  0  0  0
 22 24  2  0  0  0  0
 23 25  2  0  0  0  0
 24 26  1  0  0  0  0
 25 27  1  0  0  0  0
 26 27  2  0  0  0  0
M  END
> <DRUGBANK_ID>
DB06090

> <DRUG_GROUPS>
investigational

> <GENERIC_NAME>
TC-5619

> <CHEMICAL_FORMULA>
C22H23N3O2

> <MOLECULAR_WEIGHT>
361.4369

> <EXACT_MASS>
361.179026995

> <IUPAC_NAME>
N-[(2S,3S)-2-(pyridin-3-ylmethyl)-1-azabicyclo[2.2.2]octan-3-yl]-1-benzofuran-2-carboxamide

> <IUPAC_TRADITIONAL_NAME>
N-[(2S,3S)-2-(pyridin-3-ylmethyl)-1-azabicyclo[2.2.2]octan-3-yl]-1-benzofuran-2-carboxamide

> <INCHI_IDENTIFIER>
InChI=1S/C22H23N3O2/c26-22(20-13-17-5-1-2-6-19(17)27-20)24-21-16-7-10-25(11-8-16)18(21)12-15-4-3-9-23-14-15/h1-6,9,13-14,16,18,21H,7-8,10-12H2,(H,24,26)/t18-,21-/m0/s1

> <INCHI_KEY>
InChIKey=OXKRFEWMSWPKKV-RXVVDRJESA-N

> <SMILES>
O=C(N[C@H]1C2CCN(CC2)[C@H]1CC1=CN=CC=C1)C1=CC2=CC=CC=C2O1

> <JCHEM_ACCEPTOR_COUNT>
3

> <JCHEM_DONOR_COUNT>
1

> <JCHEM_ACIDIC_PKA>
14.57

> <JCHEM_BASIC_PKA>
7.44

> <JCHEM_PHYSIOLOGICAL_CHARGE>
1

> <ALOGPS_LOGP>
2.74

> <JCHEM_LOGP>
2.36

> <ALOGPS_LOGS>
-3.8

> <JCHEM_POLARIZABILITY>
39.15

> <JCHEM_POLAR_SURFACE_AREA>
58.37

> <JCHEM_REFRACTIVITY>
103.6

> <JCHEM_ROTATABLE_BOND_COUNT>
4

> <ALOGPS_SOLUBILITY>
5.59e-02 g/l __ 

$$$$
