44151801
  Mrv0541 02241212462D          

117124  0  0  1  0            999 V2000
    1.6500    3.5330    0.0000 Cl   0  0  0  0  0  0  0  0  0  0  0  0
   10.2239   -3.8922    0.0000 O    0  0  0  0  0  0  0  0  0  0  0  0
   10.1064   -5.0098    0.0000 O    0  0  0  0  0  0  0  0  0  0  0  0
    9.5094   -1.0046    0.0000 O    0  0  0  0  0  0  0  0  0  0  0  0
    8.8072   -7.6857    0.0000 O    0  0  0  0  0  0  0  0  0  0  0  0
   12.3674   -0.1796    0.0000 O    0  0  0  0  0  0  0  0  0  0  0  0
   11.6529    2.7080    0.0000 O    0  0  0  0  0  0  0  0  0  0  0  0
    8.7949    3.5330    0.0000 O    0  0  0  0  0  0  0  0  0  0  0  0
    8.7949    1.0579    0.0000 O    0  0  0  0  0  0  0  0  0  0  0  0
    6.6515    1.4704    0.0000 O    0  0  0  0  0  0  0  0  0  0  0  0
    4.5080    3.5330    0.0000 O    0  0  0  0  0  0  0  0  0  0  0  0
   14.5108   -1.4171    0.0000 O    0  0  0  0  0  0  0  0  0  0  0  0
    5.2224    6.4205    0.0000 O    0  0  0  0  0  0  0  0  0  0  0  0
   13.7963    3.9455    0.0000 O    0  0  0  0  0  0  0  0  0  0  0  0
   15.2253    7.2456    0.0000 O    0  0  0  0  0  0  0  0  0  0  0  0
    5.2224    7.2456    0.0000 O    0  0  0  0  0  0  0  0  0  0  0  0
   16.6542    4.7705    0.0000 O    0  0  0  0  0  0  0  0  0  0  0  0
    8.7949   -3.8922    0.0000 N    0  0  0  0  0  0  0  0  0  0  0  0
   10.2239   -2.2422    0.0000 N    0  0  0  0  0  0  0  0  0  0  0  0
    9.1503   -6.0717    0.0000 N    0  0  0  0  0  0  0  0  0  0  0  0
   10.9383   -0.1796    0.0000 N    0  0  0  0  0  0  0  0  0  0  0  0
    5.9370   -2.2422    0.0000 N    0  0  0  0  0  0  0  0  0  0  0  0
   10.2049   -7.9828    0.0000 N    0  0  0  0  0  0  0  0  0  0  0  0
   10.9383    1.4704    0.0000 N    0  0  0  0  0  0  0  0  0  0  0  0
    9.5094    2.2954    0.0000 N    0  0  0  0  0  0  0  0  0  0  0  0
    7.3659    2.7080    0.0000 N    0  0  0  0  0  0  0  0  0  0  0  0
   15.2253   -0.1796    0.0000 N    0  0  0  0  0  0  0  0  0  0  0  0
    5.9370    3.5330    0.0000 N    0  0  0  0  0  0  0  0  0  0  0  0
   13.0818    5.1830    0.0000 N    0  0  0  0  0  0  0  0  0  0  0  0
    5.9370    5.1830    0.0000 N    0  0  0  0  0  0  0  0  0  0  0  0
    6.6515    7.2456    0.0000 N    0  0  0  0  0  0  0  0  0  0  0  0
   15.9398   -1.4171    0.0000 N    0  0  0  0  0  0  0  0  0  0  0  0
   15.2253    4.7705    0.0000 N    0  0  0  0  0  0  0  0  0  0  0  0
    4.5080    0.2329    0.0000 N    0  0  0  0  0  0  0  0  0  0  0  0
   15.9398    6.0080    0.0000 N    0  0  0  0  0  0  0  0  0  0  0  0
    8.7086   -4.7127    0.0000 C    0  0  0  0  0  0  0  0  0  0  0  0
    7.9017   -4.8842    0.0000 C    0  0  0  0  0  0  0  0  0  0  0  0
    7.4892   -4.1697    0.0000 C    0  0  0  0  0  0  0  0  0  0  0  0
    8.0412   -3.5566    0.0000 C    0  0  0  0  0  0  0  0  0  0  0  0
    9.5094   -3.4797    0.0000 C    0  0  0  0  0  0  0  0  0  0  0  0
    9.5094   -2.6547    0.0000 C    0  0  2  0  0  0  0  0  0  0  0  0
    9.3218   -5.2647    0.0000 C    0  0  0  0  0  0  0  0  0  0  0  0
    8.7949   -2.2422    0.0000 C    0  0  0  0  0  0  0  0  0  0  0  0
    8.0804   -2.6547    0.0000 C    0  0  0  0  0  0  0  0  0  0  0  0
    7.3659   -2.2422    0.0000 C    0  0  0  0  0  0  0  0  0  0  0  0
   10.9383   -1.0046    0.0000 C    0  0  2  0  0  0  0  0  0  0  0  0
   10.2239   -1.4171    0.0000 C    0  0  0  0  0  0  0  0  0  0  0  0
    9.7633   -6.6237    0.0000 C    0  0  2  0  0  0  0  0  0  0  0  0
   11.6529   -1.4171    0.0000 C    0  0  0  0  0  0  0  0  0  0  0  0
    6.6515   -2.6547    0.0000 C    0  0  0  0  0  0  0  0  0  0  0  0
   12.0654   -2.1315    0.0000 C    0  0  0  0  0  0  0  0  0  0  0  0
   10.5480   -6.3688    0.0000 C    0  0  0  0  0  0  0  0  0  0  0  0
    9.5918   -7.4308    0.0000 C    0  0  0  0  0  0  0  0  0  0  0  0
   12.8904   -2.1316    0.0000 C    0  0  0  0  0  0  0  0  0  0  0  0
   11.6529   -2.8461    0.0000 C    0  0  0  0  0  0  0  0  0  0  0  0
    5.2224   -2.6547    0.0000 C    0  0  0  0  0  0  0  0  0  0  0  0
   11.6529    0.2329    0.0000 C    0  0  0  0  0  0  0  0  0  0  0  0
   11.6529    1.0579    0.0000 C    0  0  1  0  0  0  0  0  0  0  0  0
   12.3674    1.4704    0.0000 C    0  0  0  0  0  0  0  0  0  0  0  0
    4.5080   -2.2422    0.0000 C    0  0  0  0  0  0  0  0  0  0  0  0
    5.2224   -3.4797    0.0000 C    0  0  0  0  0  0  0  0  0  0  0  0
   13.0818    1.0579    0.0000 C    0  0  0  0  0  0  0  0  0  0  0  0
   10.9383    2.2954    0.0000 C    0  0  0  0  0  0  0  0  0  0  0  0
   10.2239    2.7080    0.0000 C    0  0  2  0  0  0  0  0  0  0  0  0
   10.2239    3.5330    0.0000 C    0  0  0  0  0  0  0  0  0  0  0  0
   13.0818    0.2329    0.0000 C    0  0  0  0  0  0  0  0  0  0  0  0
   13.7963    1.4704    0.0000 C    0  0  0  0  0  0  0  0  0  0  0  0
   10.9383    3.9455    0.0000 C    0  0  0  0  0  0  0  0  0  0  0  0
   13.7963   -0.1796    0.0000 C    0  0  0  0  0  0  0  0  0  0  0  0
   14.5108    1.0579    0.0000 C    0  0  0  0  0  0  0  0  0  0  0  0
   14.5108    0.2329    0.0000 C    0  0  0  0  0  0  0  0  0  0  0  0
    8.7949    2.7080    0.0000 C    0  0  0  0  0  0  0  0  0  0  0  0
    8.0804    2.2954    0.0000 C    0  0  2  0  0  0  0  0  0  0  0  0
   11.6529    3.5330    0.0000 C    0  0  0  0  0  0  0  0  0  0  0  0
   10.9383    4.7705    0.0000 C    0  0  0  0  0  0  0  0  0  0  0  0
    8.0804    1.4704    0.0000 C    0  0  0  0  0  0  0  0  0  0  0  0
    5.9370    2.7080    0.0000 C    0  0  1  0  0  0  0  0  0  0  0  0
   12.3674    3.9455    0.0000 C    0  0  0  0  0  0  0  0  0  0  0  0
   11.6529    5.1830    0.0000 C    0  0  0  0  0  0  0  0  0  0  0  0
    6.6515    2.2954    0.0000 C    0  0  0  0  0  0  0  0  0  0  0  0
   12.3674    4.7705    0.0000 C    0  0  0  0  0  0  0  0  0  0  0  0
    5.2224    2.2954    0.0000 C    0  0  0  0  0  0  0  0  0  0  0  0
    5.2224    4.7705    0.0000 C    0  0  1  0  0  0  0  0  0  0  0  0
    5.2224    3.9455    0.0000 C    0  0  0  0  0  0  0  0  0  0  0  0
    4.5080    5.1830    0.0000 C    0  0  0  0  0  0  0  0  0  0  0  0
   15.2253   -1.0046    0.0000 C    0  0  0  0  0  0  0  0  0  0  0  0
    6.6515    6.4205    0.0000 C    0  0  1  0  0  0  0  0  0  0  0  0
    5.2224    1.4704    0.0000 C    0  0  0  0  0  0  0  0  0  0  0  0
    5.9370    6.0080    0.0000 C    0  0  0  0  0  0  0  0  0  0  0  0
    7.3659    6.0080    0.0000 C    0  0  0  0  0  0  0  0  0  0  0  0
    3.7935    4.7705    0.0000 C    0  0  0  0  0  0  0  0  0  0  0  0
   13.7963    4.7705    0.0000 C    0  0  0  0  0  0  0  0  0  0  0  0
   14.5108    5.1830    0.0000 C    0  0  1  0  0  0  0  0  0  0  0  0
    8.0804    6.4205    0.0000 C    0  0  0  0  0  0  0  0  0  0  0  0
    5.9370    1.0579    0.0000 C    0  0  0  0  0  0  0  0  0  0  0  0
    4.5080    1.0579    0.0000 C    0  0  0  0  0  0  0  0  0  0  0  0
   14.5108    6.0080    0.0000 C    0  0  0  0  0  0  0  0  0  0  0  0
    3.0790    5.1830    0.0000 C    0  0  0  0  0  0  0  0  0  0  0  0
    3.7935    3.9455    0.0000 C    0  0  0  0  0  0  0  0  0  0  0  0
    8.7949    6.0080    0.0000 C    0  0  0  0  0  0  0  0  0  0  0  0
    8.0804    7.2456    0.0000 C    0  0  0  0  0  0  0  0  0  0  0  0
    9.5094    6.4205    0.0000 C    0  0  0  0  0  0  0  0  0  0  0  0
    9.5094    7.2456    0.0000 C    0  0  0  0  0  0  0  0  0  0  0  0
    5.9370    0.2329    0.0000 C    0  0  0  0  0  0  0  0  0  0  0  0
   15.2253    6.4205    0.0000 C    0  0  0  0  0  0  0  0  0  0  0  0
    8.7949    7.6581    0.0000 C    0  0  0  0  0  0  0  0  0  0  0  0
    5.9370    7.6581    0.0000 C    0  0  0  0  0  0  0  0  0  0  0  0
    2.3645    4.7705    0.0000 C    0  0  0  0  0  0  0  0  0  0  0  0
    3.0790    3.5330    0.0000 C    0  0  0  0  0  0  0  0  0  0  0  0
   15.9398    5.1830    0.0000 C    0  0  0  0  0  0  0  0  0  0  0  0
    5.2224   -0.1796    0.0000 C    0  0  0  0  0  0  0  0  0  0  0  0
    2.3645    3.9455    0.0000 C    0  0  0  0  0  0  0  0  0  0  0  0
   10.2469    5.9795    0.0000 C    0  0  0  0  0  0  0  0  0  0  0  0
   10.2469    7.6867    0.0000 C    0  0  0  0  0  0  0  0  0  0  0  0
    5.9370    8.4831    0.0000 C    0  0  0  0  0  0  0  0  0  0  0  0
   10.9944    6.4034    0.0000 C    0  0  0  0  0  0  0  0  0  0  0  0
   10.9944    7.2628    0.0000 C    0  0  0  0  0  0  0  0  0  0  0  0
  1112  1  0  0  0  0
  2 40  2  0  0  0  0
  3 42  2  0  0  0  0
  4 47  2  0  0  0  0
  5 53  2  0  0  0  0
  6 57  2  0  0  0  0
  7 63  2  0  0  0  0
  8 72  2  0  0  0  0
  9 76  1  0  0  0  0
 10 80  2  0  0  0  0
 11 84  2  0  0  0  0
 12 86  2  0  0  0  0
 13 89  2  0  0  0  0
 14 92  2  0  0  0  0
 15105  2  0  0  0  0
 16107  2  0  0  0  0
 17110  2  0  0  0  0
 18 36  1  0  0  0  0
 18 39  1  0  0  0  0
 18 40  1  0  0  0  0
 41 19  1  6  0  0  0
 19 47  1  0  0  0  0
 20 42  1  0  0  0  0
 48 20  1  6  0  0  0
 46 21  1  1  0  0  0
 21 57  1  0  0  0  0
 22 50  1  0  0  0  0
 22 56  1  0  0  0  0
 23 53  1  0  0  0  0
 58 24  1  6  0  0  0
 24 63  1  0  0  0  0
 64 25  1  1  0  0  0
 25 72  1  0  0  0  0
 73 26  1  6  0  0  0
 26 80  1  0  0  0  0
 27 71  1  0  0  0  0
 27 86  1  0  0  0  0
 77 28  1  1  0  0  0
 28 84  1  0  0  0  0
 29 81  1  0  0  0  0
 29 92  1  0  0  0  0
 83 30  1  1  0  0  0
 30 89  1  0  0  0  0
 87 31  1  6  0  0  0
 31107  1  0  0  0  0
 32 86  1  0  0  0  0
 33 93  1  0  0  0  0
 33110  1  0  0  0  0
 34 96  1  0  0  0  0
 34111  2  0  0  0  0
 35105  1  0  0  0  0
 35110  1  0  0  0  0
 36 37  1  0  0  0  0
 36 42  1  0  0  0  0
 37 38  1  0  0  0  0
 38 39  1  0  0  0  0
 40 41  1  0  0  0  0
 41 43  1  0  0  0  0
 43 44  1  0  0  0  0
 44 45  1  0  0  0  0
 45 50  1  0  0  0  0
 46 47  1  0  0  0  0
 46 49  1  0  0  0  0
 48 52  1  0  0  0  0
 48 53  1  0  0  0  0
 49 51  1  0  0  0  0
 51 54  1  0  0  0  0
 51 55  1  0  0  0  0
 56 60  1  0  0  0  0
 56 61  1  0  0  0  0
 57 58  1  0  0  0  0
 58 59  1  0  0  0  0
 59 62  1  0  0  0  0
 62 66  2  0  0  0  0
 62 67  1  0  0  0  0
 63 64  1  0  0  0  0
 64 65  1  0  0  0  0
 65 68  1  0  0  0  0
 66 69  1  0  0  0  0
 67 70  2  0  0  0  0
 68 74  2  0  0  0  0
 68 75  1  0  0  0  0
 69 71  2  0  0  0  0
 70 71  1  0  0  0  0
 72 73  1  0  0  0  0
 73 76  1  0  0  0  0
 74 78  1  0  0  0  0
 75 79  2  0  0  0  0
 77 80  1  0  0  0  0
 77 82  1  0  0  0  0
 78 81  2  0  0  0  0
 79 81  1  0  0  0  0
 82 88  1  0  0  0  0
 83 84  1  0  0  0  0
 83 85  1  0  0  0  0
 85 91  1  0  0  0  0
 87 89  1  0  0  0  0
 87 90  1  0  0  0  0
 88 95  1  0  0  0  0
 88 96  2  0  0  0  0
 90 94  1  0  0  0  0
 91 98  2  0  0  0  0
 91 99  1  0  0  0  0
 93 92  1  1  0  0  0
 93 97  1  0  0  0  0
 94100  2  0  0  0  0
 94101  1  0  0  0  0
 95104  2  0  0  0  0
 97105  1  0  0  0  0
 98108  1  0  0  0  0
 99109  2  0  0  0  0
100102  1  0  0  0  0
101106  2  0  0  0  0
102103  1  0  0  0  0
102113  2  0  0  0  0
103106  1  0  0  0  0
103114  2  0  0  0  0
104111  1  0  0  0  0
107115  1  0  0  0  0
108112  2  0  0  0  0
109112  1  0  0  0  0
113116  1  0  0  0  0
114117  1  0  0  0  0
116117  2  0  0  0  0
M  END
> <DRUGBANK_ID>
DB06699

> <DRUG_GROUPS>
approved

> <GENERIC_NAME>
Degarelix

> <SALTS>
Degarelix Acetate 

> <BRANDS>
Firmagon

> <CHEMICAL_FORMULA>
C82H103ClN18O16

> <MOLECULAR_WEIGHT>
1632.259

> <EXACT_MASS>
1630.748797045

> <IUPAC_NAME>
(4R)-N-{4-[(2S)-2-{[(1R)-2-[4-(carbamoylamino)phenyl]-1-{[(1S)-1-{[(2S)-1-(2-{[(1R)-1-carbamoylethyl]carbamoyl}pyrrolidin-1-yl)-1-oxo-6-[(propan-2-yl)amino]hexan-2-yl]carbamoyl}-3-methylbutyl]carbamoyl}ethyl]carbamoyl}-2-[(2S)-2-[(2R)-2-[(2R)-3-(4-chlorophenyl)-2-[(2R)-2-acetamido-3-(naphthalen-2-yl)propanamido]propanamido]-3-(pyridin-3-yl)propanamido]-3-hydroxypropanamido]ethyl]phenyl}-2,6-dioxo-1,3-diazinane-4-carboxamide

> <IUPAC_TRADITIONAL_NAME>
(4R)-N-{4-[(2S)-2-{[(1R)-2-[4-(carbamoylamino)phenyl]-1-{[(1S)-1-{[(2S)-1-(2-{[(1R)-1-carbamoylethyl]carbamoyl}pyrrolidin-1-yl)-6-(isopropylamino)-1-oxohexan-2-yl]carbamoyl}-3-methylbutyl]carbamoyl}ethyl]carbamoyl}-2-[(2S)-2-[(2R)-2-[(2R)-3-(4-chlorophenyl)-2-[(2R)-2-acetamido-3-(naphthalen-2-yl)propanamido]propanamido]-3-(pyridin-3-yl)propanamido]-3-hydroxypropanamido]ethyl]phenyl}-2,6-dioxo-1,3-diazinane-4-carboxamide

> <INCHI_IDENTIFIER>
InChI=1S/C82H103ClN18O16/c1-45(2)35-60(72(107)92-59(16-9-10-33-87-46(3)4)80(115)101-34-12-17-68(101)79(114)88-47(5)70(84)105)93-74(109)63(38-51-23-30-58(31-24-51)91-81(85)116)95-76(111)64(39-50-21-28-57(29-22-50)90-71(106)66-42-69(104)100-82(117)99-66)97-78(113)67(44-102)98-77(112)65(41-53-13-11-32-86-43-53)96-75(110)62(37-49-19-26-56(83)27-20-49)94-73(108)61(89-48(6)103)40-52-18-25-54-14-7-8-15-55(54)36-52/h7-8,11,13-15,18-32,36,43,45-47,59-68,87,102H,9-10,12,16-17,33-35,37-42,44H2,1-6H3,(H2,84,105)(H,88,114)(H,89,103)(H,90,106)(H,92,107)(H,93,109)(H,94,108)(H,95,111)(H,96,110)(H,97,113)(H,98,112)(H3,85,91,116)(H2,99,100,104,117)/t47-,59+,60+,61-,62-,63-,64+,65-,66-,67+,68?/m1/s1

> <INCHI_KEY>
InChIKey=MEUCPCLKGZSHTA-RHCWOGDZSA-N

> <SMILES>
CC(C)C[C@H](NC(=O)[C@@H](CC1=CC=C(NC(N)=O)C=C1)NC(=O)[C@H](CC1=CC=C(NC(=O)[C@H]2CC(=O)NC(=O)N2)C=C1)NC(=O)[C@H](CO)NC(=O)[C@@H](CC1=CN=CC=C1)NC(=O)[C@@H](CC1=CC=C(Cl)C=C1)NC(=O)[C@@H](CC1=CC2=CC=CC=C2C=C1)NC(C)=O)C(=O)N[C@@H](CCCCNC(C)C)C(=O)N1CCCC1C(=O)N[C@H](C)C(N)=O

> <JCHEM_ACCEPTOR_COUNT>
18

> <JCHEM_DONOR_COUNT>
17

> <JCHEM_ACIDIC_PKA>
10.49

> <JCHEM_BASIC_PKA>
11.02

> <JCHEM_PHYSIOLOGICAL_CHARGE>
1

> <ALOGPS_LOGP>
2.66

> <JCHEM_LOGP>
-1.4

> <ALOGPS_LOGS>
-5.6

> <JCHEM_POLARIZABILITY>
169.03

> <JCHEM_POLAR_SURFACE_AREA>
512.87

> <JCHEM_REFRACTIVITY>
431.13

> <JCHEM_ROTATABLE_BOND_COUNT>
41

> <ALOGPS_SOLUBILITY>
4.10e-03 g/l __ 

$$$$
