12C
  Mrv0541 02241213022D          

 32 37  0  0  0  0            999 V2000
   -1.1781   -0.4313    0.0000 C    0  0  0  0  0  0  0  0  0  0  0  0
   -1.1781   -1.2563    0.0000 C    0  0  0  0  0  0  0  0  0  0  0  0
   -1.8926   -1.6688    0.0000 C    0  0  0  0  0  0  0  0  0  0  0  0
   -1.8926   -2.4938    0.0000 Cl   0  0  0  0  0  0  0  0  0  0  0  0
   -2.6071   -1.2563    0.0000 C    0  0  0  0  0  0  0  0  0  0  0  0
   -2.6071   -0.4313    0.0000 C    0  0  0  0  0  0  0  0  0  0  0  0
   -1.8926   -0.0188    0.0000 C    0  0  0  0  0  0  0  0  0  0  0  0
   -1.8926    0.8062    0.0000 N    0  0  0  0  0  0  0  0  0  0  0  0
   -1.1781    1.2187    0.0000 C    0  0  0  0  0  0  0  0  0  0  0  0
   -1.1781    2.0437    0.0000 O    0  0  0  0  0  0  0  0  0  0  0  0
   -0.4637    0.8062    0.0000 C    0  0  0  0  0  0  0  0  0  0  0  0
    0.2508    1.2187    0.0000 C    0  0  0  0  0  0  0  0  0  0  0  0
   -0.4637   -0.0188    0.0000 C    0  0  0  0  0  0  0  0  0  0  0  0
    0.2508   -0.4313    0.0000 N    0  0  0  0  0  0  0  0  0  0  0  0
    0.2508   -1.2563    0.0000 C    0  0  2  0  0  0  0  0  0  0  0  0
    1.0045    0.8831    0.0000 N    0  0  0  0  0  0  0  0  0  0  0  0
    1.5565    1.4962    0.0000 C    0  0  0  0  0  0  0  0  0  0  0  0
    1.1440    2.2107    0.0000 C    0  0  0  0  0  0  0  0  0  0  0  0
    0.3371    2.0392    0.0000 N    0  0  0  0  0  0  0  0  0  0  0  0
    2.3815    1.4962    0.0000 C    0  0  0  0  0  0  0  0  0  0  0  0
    2.7940    2.2107    0.0000 C    0  0  0  0  0  0  0  0  0  0  0  0
    2.3815    2.9252    0.0000 C    0  0  0  0  0  0  0  0  0  0  0  0
    1.5565    2.9252    0.0000 C    0  0  0  0  0  0  0  0  0  0  0  0
   -0.4410   -1.6124    0.0000 C    0  0  0  0  0  0  0  0  0  0  0  0
    0.2967   -1.9817    0.0000 N    0  0  2  0  0  0  0  0  0  0  0  0
    0.5389   -2.8617    0.0000 C    0  0  0  0  0  0  0  0  0  0  0  0
    1.1966   -2.4749    0.0000 C    0  0  0  0  0  0  0  0  0  0  0  0
    1.0220   -1.2252    0.0000 C    0  0  0  0  0  0  0  0  0  0  0  0
    1.6483   -1.0391    0.0000 C    0  0  0  0  0  0  0  0  0  0  0  0
    0.9710   -1.6269    0.0000 C    0  0  1  0  0  0  0  0  0  0  0  0
   -0.2477   -0.9522    0.0000 H    0  0  0  0  0  0  0  0  0  0  0  0
    0.6687   -2.1266    0.0000 H    0  0  0  0  0  0  0  0  0  0  0  0
  1  2  1  0  0  0  0
  1  7  2  0  0  0  0
  1 13  1  0  0  0  0
  2  3  2  0  0  0  0
  3  4  1  0  0  0  0
  3  5  1  0  0  0  0
  5  6  2  0  0  0  0
  6  7  1  0  0  0  0
  7  8  1  0  0  0  0
  8  9  1  0  0  0  0
  9 10  2  0  0  0  0
  9 11  1  0  0  0  0
 11 12  1  0  0  0  0
 11 13  2  0  0  0  0
 12 16  1  0  0  0  0
 12 19  2  0  0  0  0
 13 14  1  0  0  0  0
 15 14  1  1  0  0  0
 15 24  1  0  0  0  0
 15 30  1  0  0  0  0
 15 31  1  6  0  0  0
 16 17  1  0  0  0  0
 17 18  1  0  0  0  0
 17 20  2  0  0  0  0
 18 19  1  0  0  0  0
 18 23  2  0  0  0  0
 20 21  1  0  0  0  0
 21 22  2  0  0  0  0
 22 23  1  0  0  0  0
 25 24  1  1  0  0  0
 25 26  1  0  0  0  0
 25 28  1  0  0  0  0
 26 27  1  0  0  0  0
 27 30  1  0  0  0  0
 28 29  1  0  0  0  0
 29 30  1  0  0  0  0
 30 32  1  1  0  0  0
M  END
> <DRUGBANK_ID>
DB06852

> <DRUG_GROUPS>
experimental

> <GENERIC_NAME>
4-[(3S)-1-AZABICYCLO[2.2.2]OCT-3-YLAMINO]-3-(1H-BENZIMIDAZOL-2-YL)-6-CHLOROQUINOLIN-2(1H)-ONE

> <CHEMICAL_FORMULA>
C23H22ClN5O

> <MOLECULAR_WEIGHT>
419.907

> <EXACT_MASS>
419.151288058

> <IUPAC_NAME>
4-{[(1S,3S)-1-azabicyclo[2.2.2]octan-3-yl]amino}-3-(1H-1,3-benzodiazol-2-yl)-6-chloro-1,2-dihydroquinolin-2-one

> <IUPAC_TRADITIONAL_NAME>
4-[(1S,3S)-1-azabicyclo[2.2.2]octan-3-ylamino]-3-(1H-1,3-benzodiazol-2-yl)-6-chloro-1H-quinolin-2-one

> <INCHI_IDENTIFIER>
InChI=1S/C23H22ClN5O/c24-14-5-6-16-15(11-14)21(25-19-12-29-9-7-13(19)8-10-29)20(23(30)28-16)22-26-17-3-1-2-4-18(17)27-22/h1-6,11,13,19H,7-10,12H2,(H,26,27)(H2,25,28,30)/t19-/m1/s1

> <INCHI_KEY>
InChIKey=MOVBBVMDHIRCTG-LJQANCHMSA-N

> <SMILES>
[H][C@@]12CC[N@@](CC1)C[C@@]2([H])NC1=C(C2=NC3=CC=CC=C3N2)C(=O)NC2=C1C=C(Cl)C=C2

> <JCHEM_ACCEPTOR_COUNT>
4

> <JCHEM_DONOR_COUNT>
3

> <JCHEM_ACIDIC_PKA>
7.95

> <JCHEM_BASIC_PKA>
7.88

> <JCHEM_PHYSIOLOGICAL_CHARGE>
1

> <ALOGPS_LOGP>
3.74

> <JCHEM_LOGP>
2.55

> <ALOGPS_LOGS>
-4.2

> <JCHEM_POLARIZABILITY>
44.19

> <JCHEM_POLAR_SURFACE_AREA>
73.05

> <JCHEM_REFRACTIVITY>
119.22

> <JCHEM_ROTATABLE_BOND_COUNT>
3

> <ALOGPS_SOLUBILITY>
2.66e-02 g/l __ 

$$$$
