4541
  Mrv0541 02241213002D          

 21 22  0  0  1  0            999 V2000
    4.9509    3.5063    0.0000 F   0  0  0  0  0  0  0  0  0  0  0  0
    5.7760    2.6813    0.0000 F   0  0  0  0  0  0  0  0  0  0  0  0
    4.1259    2.6813    0.0000 F   0  0  0  0  0  0  0  0  0  0  0  0
    4.9509   -0.6188    0.0000 O   0  0  0  0  0  0  0  0  0  0  0  0
    2.0930   -0.6188    0.0000 N   0  0  0  0  0  0  0  0  0  0  0  0
    4.2365   -1.0313    0.0000 C   0  0  0  0  0  0  0  0  0  0  0  0
    3.5220   -0.6188    0.0000 C   0  0  0  0  0  0  0  0  0  0  0  0
    4.2365   -1.8563    0.0000 C   0  0  0  0  0  0  0  0  0  0  0  0
    2.8075   -1.0313    0.0000 C   0  0  0  0  0  0  0  0  0  0  0  0
    4.9509    0.2063    0.0000 C   0  0  0  0  0  0  0  0  0  0  0  0
    4.9509   -2.2688    0.0000 C   0  0  0  0  0  0  0  0  0  0  0  0
    3.5220   -2.2688    0.0000 C   0  0  0  0  0  0  0  0  0  0  0  0
    5.6655    0.6188    0.0000 C   0  0  0  0  0  0  0  0  0  0  0  0
    4.2365    0.6188    0.0000 C   0  0  0  0  0  0  0  0  0  0  0  0
    4.9509   -3.0938    0.0000 C   0  0  0  0  0  0  0  0  0  0  0  0
    3.5220   -3.0938    0.0000 C   0  0  0  0  0  0  0  0  0  0  0  0
    4.9509    1.8563    0.0000 C   0  0  0  0  0  0  0  0  0  0  0  0
    5.6655    1.4438    0.0000 C   0  0  0  0  0  0  0  0  0  0  0  0
    4.2365    1.4438    0.0000 C   0  0  0  0  0  0  0  0  0  0  0  0
    4.2365   -3.5063    0.0000 C   0  0  0  0  0  0  0  0  0  0  0  0
    4.9509    2.6813    0.0000 C   0  0  0  0  0  0  0  0  0  0  0  0
  1 21  1  0  0  0  0
  2 21  1  0  0  0  0
  3 21  1  0  0  0  0
  4  6  1  0  0  0  0
  4 10  1  0  0  0  0
  5  9  1  0  0  0  0
  6  7  1  0  0  0  0
  6  8  1  0  0  0  0
  7  9  1  0  0  0  0
  8 11  2  0  0  0  0
  8 12  1  0  0  0  0
 10 13  2  0  0  0  0
 10 14  1  0  0  0  0
 11 15  1  0  0  0  0
 12 16  2  0  0  0  0
 13 18  1  0  0  0  0
 14 19  2  0  0  0  0
 15 20  2  0  0  0  0
 16 20  1  0  0  0  0
 17 18  2  0  0  0  0
 17 19  1  0  0  0  0
 17 21  1  0  0  0  0
M  END
> <DRUGBANK_ID>
DB06731

> <DRUG_GROUPS>
investigational

> <GENERIC_NAME>
Seproxetine

> <SYNONYMS>
(S)-norfluoxetine

> <SALTS>
Seproxetine Hydrochloride

> <CHEMICAL_FORMULA>
C16H16F3NO

> <MOLECULAR_WEIGHT>
295.2995

> <EXACT_MASS>
295.118398754

> <IUPAC_NAME>
1-(3-amino-1-phenylpropoxy)-4-(trifluoromethyl)benzene

> <IUPAC_TRADITIONAL_NAME>
1-(3-amino-1-phenylpropoxy)-4-(trifluoromethyl)benzene

> <INCHI_IDENTIFIER>
InChI=1S/C16H16F3NO/c17-16(18,19)13-6-8-14(9-7-13)21-15(10-11-20)12-4-2-1-3-5-12/h1-9,15H,10-11,20H2

> <INCHI_KEY>
InChIKey=WIQRCHMSJFFONW-UHFFFAOYSA-N

> <SMILES>
NCCC(OC1=CC=C(C=C1)C(F)(F)F)C1=CC=CC=C1

> <JCHEM_ACCEPTOR_COUNT>
2

> <JCHEM_DONOR_COUNT>
1

> <JCHEM_BASIC_PKA>
9.77

> <JCHEM_PHYSIOLOGICAL_CHARGE>
1

> <ALOGPS_LOGP>
3.8

> <JCHEM_LOGP>
3.74

> <ALOGPS_LOGS>
-4.5

> <JCHEM_POLARIZABILITY>
28.13

> <JCHEM_POLAR_SURFACE_AREA>
35.25

> <JCHEM_REFRACTIVITY>
75.59

> <JCHEM_ROTATABLE_BOND_COUNT>
6

> <ALOGPS_SOLUBILITY>
9.15e-03 g/l __ 

$$$$
