
  Mrv0541 03241316052D          

 18 18  0  0  0  0            999 V2000
    7.6312    1.9447    0.0000 C   0  0  0  0  0  0  0  0  0  0  0  0
    6.9168    1.5322    0.0000 C   0  0  0  0  0  0  0  0  0  0  0  0
    6.9168    0.7071    0.0000 C   0  0  0  0  0  0  0  0  0  0  0  0
    7.6312    0.2946    0.0000 C   0  0  0  0  0  0  0  0  0  0  0  0
    8.3457    0.7071    0.0000 C   0  0  0  0  0  0  0  0  0  0  0  0
    8.3457    1.5322    0.0000 C   0  0  0  0  0  0  0  0  0  0  0  0
    6.2023    1.9447    0.0000 C   0  0  0  0  0  0  0  0  0  0  0  0
    5.4878    1.5322    0.0000 N   0  0  0  0  0  0  0  0  0  0  0  0
    4.7734    1.9447    0.0000 C   0  0  0  0  0  0  0  0  0  0  0  0
    4.7734    2.7697    0.0000 O   0  0  0  0  0  0  0  0  0  0  0  0
    4.0589    1.5322    0.0000 C   0  0  1  0  0  0  0  0  0  0  0  0
    4.0589    0.7072    0.0000 C   0  0  0  0  0  0  0  0  0  0  0  0
    4.7734    0.2947    0.0000 O   0  0  0  0  0  0  0  0  0  0  0  0
    4.7734   -0.5303    0.0000 C   0  0  0  0  0  0  0  0  0  0  0  0
    3.2620    1.7457    0.0000 N   0  0  0  0  0  0  0  0  0  0  0  0
    2.5475    1.3332    0.0000 C   0  0  0  0  0  0  0  0  0  0  0  0
    2.5475    0.5082    0.0000 O   0  0  0  0  0  0  0  0  0  0  0  0
    1.8331    1.7457    0.0000 C   0  0  0  0  0  0  0  0  0  0  0  0
  1  2  1  0  0  0  0
  2  3  2  0  0  0  0
  3  4  1  0  0  0  0
  4  5  2  0  0  0  0
  5  6  1  0  0  0  0
  1  6  2  0  0  0  0
  2  7  1  0  0  0  0
  7  8  1  0  0  0  0
  8  9  1  0  0  0  0
  9 10  2  0  0  0  0
  9 11  1  0  0  0  0
 11 12  1  0  0  0  0
 12 13  1  0  0  0  0
 13 14  1  0  0  0  0
 11 15  1  1  0  0  0
 15 16  1  0  0  0  0
 16 17  2  0  0  0  0
 16 18  1  0  0  0  0
M  END
> <DRUGBANK_ID>
DB06218

> <DRUG_GROUPS>
approved

> <GENERIC_NAME>
Lacosamide

> <SYNONYMS>
Erlosamide; Harkoseride; SPM 927; Vimpat

> <BRANDS>
Vimpat

> <CHEMICAL_FORMULA>
C13H18N2O3

> <MOLECULAR_WEIGHT>
250.2936

> <EXACT_MASS>
250.131742452

> <IUPAC_NAME>
(2R)-N-benzyl-2-acetamido-3-methoxypropanamide

> <IUPAC_TRADITIONAL_NAME>
lacosamide

> <INCHI_IDENTIFIER>
InChI=1S/C13H18N2O3/c1-10(16)15-12(9-18-2)13(17)14-8-11-6-4-3-5-7-11/h3-7,12H,8-9H2,1-2H3,(H,14,17)(H,15,16)/t12-/m1/s1

> <INCHI_KEY>
InChIKey=VPPJLAIAVCUEMN-GFCCVEGCSA-N

> <SMILES>
COC[C@@H](NC(C)=O)C(=O)NCC1=CC=CC=C1

> <JCHEM_ACCEPTOR_COUNT>
3

> <JCHEM_DONOR_COUNT>
2

> <JCHEM_ACIDIC_PKA>
12.47

> <JCHEM_BASIC_PKA>
-1.5

> <JCHEM_PHYSIOLOGICAL_CHARGE>
0

> <ALOGPS_LOGP>
0.18

> <JCHEM_LOGP>
-0.022

> <ALOGPS_LOGS>
-2.7

> <JCHEM_POLARIZABILITY>
26.68

> <JCHEM_POLAR_SURFACE_AREA>
67.43

> <JCHEM_REFRACTIVITY>
67.57

> <JCHEM_ROTATABLE_BOND_COUNT>
6

> <ALOGPS_SOLUBILITY>
4.65e-01 g/l __ 

$$$$
