 
  Mrv0541 08201312202D          
 
 18 19  0  0  0  0            999 V2000
   14.6025  -11.0137    0.0000 C   0  0  0  0  0  0  0  0  0  0  0  0
   13.9013  -11.3850    0.0000 C   0  0  0  0  0  0  0  0  0  0  0  0
   15.3038  -11.3850    0.0000 C   0  0  0  0  0  0  0  0  0  0  0  0
   13.9013  -10.5600    0.0000 C   0  0  0  0  0  0  0  0  0  0  0  0
   15.3038  -10.5600    0.0000 C   0  0  0  0  0  0  0  0  0  0  0  0
   13.9013  -12.2100    0.0000 C   0  0  0  0  0  0  0  0  0  0  0  0
   13.1588  -10.9725    0.0000 C   0  0  0  0  0  0  0  0  0  0  0  0
   16.0050  -11.0137    0.0000 C   0  0  0  0  0  0  0  0  0  0  0  0
   15.3038  -12.2512    0.0000 O   0  0  0  0  0  0  0  0  0  0  0  0
   13.9013   -9.7762    0.0000 C   0  0  0  0  0  0  0  0  0  0  0  0
   15.3038   -9.7762    0.0000 C   0  0  0  0  0  0  0  0  0  0  0  0
   13.1588  -12.6637    0.0000 C   0  0  0  0  0  0  0  0  0  0  0  0
   12.4575  -11.3850    0.0000 C   0  0  0  0  0  0  0  0  0  0  0  0
   14.6025   -9.3225    0.0000 N   0  0  0  0  0  0  0  0  0  0  0  0
   12.4575  -12.2100    0.0000 C   0  0  0  0  0  0  0  0  0  0  0  0
   14.6025   -8.4975    0.0000 C   0  0  0  0  0  0  0  0  0  0  0  0
   11.7563  -11.0137    0.0000 O   0  0  0  0  0  0  0  0  0  0  0  0
   16.7475  -11.4262    0.0000 C   0  0  0  0  0  0  0  0  0  0  0  0
  1  3  1  0  0  0  0
  1  4  1  0  0  0  0
  1  5  1  0  0  0  0
  2  6  1  0  0  0  0
  2  7  2  0  0  0  0
  3  8  1  0  0  0  0
  3  9  2  0  0  0  0
  4 10  1  0  0  0  0
  5 11  1  0  0  0  0
  6 12  2  0  0  0  0
  7 13  1  0  0  0  0
 10 14  1  0  0  0  0
 12 15  1  0  0  0  0
 14 16  1  0  0  0  0
 11 14  1  0  0  0  0
 13 15  2  0  0  0  0
 13 17  1  0  0  0  0
  1  2  1  0  0  0  0
  8 18  1  0  0  0  0
M  END
> <DRUGBANK_ID>
DB06738

> <DRUG_GROUPS>
approved

> <GENERIC_NAME>
Ketobemidone

> <SYNONYMS>
Cetobemidona; Cetobemidone; Cetobemidonum

> <SALTS>
Ketobemidone hydrochloride

> <BRANDS>
Cliradon; Ketogan; Ketorax

> <CHEMICAL_FORMULA>
C15H21NO2

> <MOLECULAR_WEIGHT>
247.3327

> <EXACT_MASS>
247.157228921

> <IUPAC_NAME>
1-[4-(3-hydroxyphenyl)-1-methylpiperidin-4-yl]propan-1-one

> <IUPAC_TRADITIONAL_NAME>
ketobemidone

> <INCHI_IDENTIFIER>
InChI=1S/C15H21NO2/c1-3-14(18)15(7-9-16(2)10-8-15)12-5-4-6-13(17)11-12/h4-6,11,17H,3,7-10H2,1-2H3

> <INCHI_KEY>
InChIKey=ALFGKMXHOUSVAD-UHFFFAOYSA-N

> <SMILES>
CCC(=O)C1(CCN(C)CC1)C1=CC(O)=CC=C1

> <JCHEM_ACCEPTOR_COUNT>
3

> <JCHEM_DONOR_COUNT>
1

> <JCHEM_ACIDIC_PKA>
9.44

> <JCHEM_BASIC_PKA>
8.09

> <JCHEM_PHYSIOLOGICAL_CHARGE>
1

> <ALOGPS_LOGP>
2.01

> <JCHEM_LOGP>
2.49

> <ALOGPS_LOGS>
-1.9

> <JCHEM_POLARIZABILITY>
27.83

> <JCHEM_POLAR_SURFACE_AREA>
40.54

> <JCHEM_REFRACTIVITY>
73.12

> <JCHEM_ROTATABLE_BOND_COUNT>
3

> <ALOGPS_SOLUBILITY>
3.01e+00 g/l __ 

$$$$
