
  Mrv0541 04141317312D          

 27 30  0  0  1  0            999 V2000
   -1.4289    0.0000    0.0000 F    0  0  0  0  0  0  0  0  0  0  0  0
   -0.7145   -0.4125    0.0000 C    0  0  0  0  0  0  0  0  0  0  0  0
   -0.7145   -1.2375    0.0000 C    0  0  0  0  0  0  0  0  0  0  0  0
    0.0000   -1.6500    0.0000 C    0  0  0  0  0  0  0  0  0  0  0  0
    0.0000   -2.4750    0.0000 Cl   0  0  0  0  0  0  0  0  0  0  0  0
    0.7145   -1.2375    0.0000 C    0  0  0  0  0  0  0  0  0  0  0  0
    0.7145   -0.4125    0.0000 C    0  0  0  0  0  0  0  0  0  0  0  0
    0.0000    0.0000    0.0000 C    0  0  0  0  0  0  0  0  0  0  0  0
    1.4289    0.0000    0.0000 C    0  0  0  0  0  0  0  0  0  0  0  0
    1.4289    0.8250    0.0000 O    0  0  0  0  0  0  0  0  0  0  0  0
    2.1434   -0.4125    0.0000 C    0  0  0  0  0  0  0  0  0  0  0  0
    2.8579    0.0000    0.0000 C    0  0  0  0  0  0  0  0  0  0  0  0
    3.5724   -0.4125    0.0000 O    0  0  0  0  0  0  0  0  0  0  0  0
    2.8579    0.8250    0.0000 O    0  0  0  0  0  0  0  0  0  0  0  0
    2.1434   -1.2375    0.0000 C    0  0  0  0  0  0  0  0  0  0  0  0
    1.4289   -1.6500    0.0000 N    0  0  0  0  0  0  0  0  0  0  0  0
    1.4289   -2.4750    0.0000 C    0  0  0  0  0  0  0  0  0  0  0  0
    1.8414   -3.1895    0.0000 C    0  0  0  0  0  0  0  0  0  0  0  0
    1.0164   -3.1895    0.0000 C    0  0  0  0  0  0  0  0  0  0  0  0
   -1.4289   -1.6500    0.0000 N    0  0  0  0  0  0  0  0  0  0  0  0
   -1.3673   -2.4727    0.0000 C    0  0  0  0  0  0  0  0  0  0  0  0
   -1.9721   -3.0338    0.0000 C    0  0  0  0  0  0  0  0  0  0  0  0
   -2.7878   -2.9109    0.0000 C    0  0  0  0  0  0  0  0  0  0  0  0
   -3.2003   -2.1964    0.0000 C    0  0  0  0  0  0  0  0  0  0  0  0
   -2.8989   -1.4284    0.0000 C    0  0  1  0  0  0  0  0  0  0  0  0
   -3.4601   -0.8237    0.0000 N    0  0  0  0  0  0  0  0  0  0  0  0
   -2.1106   -1.1853    0.0000 C    0  0  0  0  0  0  0  0  0  0  0  0
  1  2  1  0  0  0  0
  2  3  2  0  0  0  0
  3  4  1  0  0  0  0
  4  5  1  0  0  0  0
  4  6  2  0  0  0  0
  6  7  1  0  0  0  0
  7  8  2  0  0  0  0
  2  8  1  0  0  0  0
  7  9  1  0  0  0  0
  9 10  2  0  0  0  0
  9 11  1  0  0  0  0
 11 12  1  0  0  0  0
 12 13  2  0  0  0  0
 12 14  1  0  0  0  0
 11 15  2  0  0  0  0
 15 16  1  0  0  0  0
  6 16  1  0  0  0  0
 16 17  1  0  0  0  0
 17 18  1  0  0  0  0
 18 19  1  0  0  0  0
 17 19  1  0  0  0  0
  3 20  1  0  0  0  0
 20 21  1  0  0  0  0
 21 22  1  0  0  0  0
 22 23  1  0  0  0  0
 23 24  1  0  0  0  0
 24 25  1  0  0  0  0
 25 26  1  1  0  0  0
 25 27  1  0  0  0  0
 20 27  1  0  0  0  0
M  END
> <DRUGBANK_ID>
DB06771

> <DRUG_GROUPS>
approved

> <GENERIC_NAME>
Besifloxacin

> <SYNONYMS>
SS734

> <SALTS>
Besifloxacin hydrochloride 

> <BRANDS>
Besivance 

> <CHEMICAL_FORMULA>
C19H21ClFN3O3

> <MOLECULAR_WEIGHT>
393.84

> <EXACT_MASS>
393.125547465

> <IUPAC_NAME>
7-[(3R)-3-aminoazepan-1-yl]-8-chloro-1-cyclopropyl-6-fluoro-4-oxo-1,4-dihydroquinoline-3-carboxylic acid

> <IUPAC_TRADITIONAL_NAME>
7-[(3R)-3-aminoazepan-1-yl]-8-chloro-1-cyclopropyl-6-fluoro-4-oxoquinoline-3-carboxylic acid

> <INCHI_IDENTIFIER>
InChI=1S/C19H21ClFN3O3/c20-15-16-12(18(25)13(19(26)27)9-24(16)11-4-5-11)7-14(21)17(15)23-6-2-1-3-10(22)8-23/h7,9-11H,1-6,8,22H2,(H,26,27)/t10-/m1/s1

> <INCHI_KEY>
InChIKey=QFFGVLORLPOAEC-SNVBAGLBSA-N

> <SMILES>
N[C@@H]1CCCCN(C1)C1=C(F)C=C2C(=O)C(=CN(C3CC3)C2=C1Cl)C(O)=O

> <JCHEM_ACCEPTOR_COUNT>
6

> <JCHEM_DONOR_COUNT>
2

> <JCHEM_ACIDIC_PKA>
5.64

> <JCHEM_BASIC_PKA>
9.67

> <JCHEM_PHYSIOLOGICAL_CHARGE>
0

> <ALOGPS_LOGP>
0.7

> <JCHEM_LOGP>
0.54

> <ALOGPS_LOGS>
-3.4

> <JCHEM_POLARIZABILITY>
39

> <JCHEM_POLAR_SURFACE_AREA>
86.87

> <JCHEM_REFRACTIVITY>
101.75

> <JCHEM_ROTATABLE_BOND_COUNT>
3

> <ALOGPS_SOLUBILITY>
1.43e-01 g/l __ 

$$$$
