
  Mrv0541 02241214202D          

 43 43  0  0  0  0            999 V2000
   -6.4302    2.8875    0.0000 C   0  0  0  0  0  0  0  0  0  0  0  0
   -5.7158    2.4750    0.0000 C   0  0  0  0  0  0  0  0  0  0  0  0
   -5.0013    2.8875    0.0000 C   0  0  0  0  0  0  0  0  0  0  0  0
   -4.2868    2.4750    0.0000 C   0  0  0  0  0  0  0  0  0  0  0  0
   -3.5724    2.8875    0.0000 C   0  0  0  0  0  0  0  0  0  0  0  0
   -2.8579    2.4750    0.0000 C   0  0  0  0  0  0  0  0  0  0  0  0
   -2.1434    2.8875    0.0000 C   0  0  0  0  0  0  0  0  0  0  0  0
   -1.4289    2.4750    0.0000 C   0  0  0  0  0  0  0  0  0  0  0  0
   -0.7145    2.8875    0.0000 C   0  0  0  0  0  0  0  0  0  0  0  0
    0.0000    2.4750    0.0000 C   0  0  0  0  0  0  0  0  0  0  0  0
    0.7145    2.8875    0.0000 C   0  0  0  0  0  0  0  0  0  0  0  0
    1.4289    2.4750    0.0000 C   0  0  0  0  0  0  0  0  0  0  0  0
    1.4289    1.6500    0.0000 C   0  0  0  0  0  0  0  0  0  0  0  0
    0.7145    1.2375    0.0000 C   0  0  0  0  0  0  0  0  0  0  0  0
    0.0000    1.6500    0.0000 C   0  0  0  0  0  0  0  0  0  0  0  0
    2.1434    1.2375    0.0000 O   0  0  0  0  0  0  0  0  0  0  0  0
    2.8579    1.6500    0.0000 C   0  0  0  0  0  0  0  0  0  0  0  0
    3.5724    1.2375    0.0000 C   0  0  0  0  0  0  0  0  0  0  0  0
    4.2868    1.6500    0.0000 O   0  0  0  0  0  0  0  0  0  0  0  0
    5.0013    1.2375    0.0000 C   0  0  0  0  0  0  0  0  0  0  0  0
    5.7158    1.6500    0.0000 C   0  0  0  0  0  0  0  0  0  0  0  0
    6.4302    1.2375    0.0000 O   0  0  0  0  0  0  0  0  0  0  0  0
    7.1447    1.6500    0.0000 C   0  0  0  0  0  0  0  0  0  0  0  0
    7.8592    1.2375    0.0000 C   0  0  0  0  0  0  0  0  0  0  0  0
    8.5737    1.6500    0.0000 O   0  0  0  0  0  0  0  0  0  0  0  0
    9.2881    1.2375    0.0000 C   0  0  0  0  0  0  0  0  0  0  0  0
   10.0026    1.6500    0.0000 C   0  0  0  0  0  0  0  0  0  0  0  0
   10.7171    1.2375    0.0000 O   0  0  0  0  0  0  0  0  0  0  0  0
   11.4315    1.6500    0.0000 C   0  0  0  0  0  0  0  0  0  0  0  0
   12.1460    1.2375    0.0000 C   0  0  0  0  0  0  0  0  0  0  0  0
   12.8605    1.6500    0.0000 O   0  0  0  0  0  0  0  0  0  0  0  0
   13.5749    1.2375    0.0000 C   0  0  0  0  0  0  0  0  0  0  0  0
   14.2894    1.6500    0.0000 C   0  0  0  0  0  0  0  0  0  0  0  0
   15.0039    1.2375    0.0000 O   0  0  0  0  0  0  0  0  0  0  0  0
   15.7184    1.6500    0.0000 C   0  0  0  0  0  0  0  0  0  0  0  0
   16.4328    1.2375    0.0000 C   0  0  0  0  0  0  0  0  0  0  0  0
   17.1473    1.6500    0.0000 O   0  0  0  0  0  0  0  0  0  0  0  0
   17.8618    1.2375    0.0000 C   0  0  0  0  0  0  0  0  0  0  0  0
   18.5762    1.6500    0.0000 C   0  0  0  0  0  0  0  0  0  0  0  0
   19.2907    1.2375    0.0000 O   0  0  0  0  0  0  0  0  0  0  0  0
   20.0052    1.6500    0.0000 C   0  0  0  0  0  0  0  0  0  0  0  0
   20.7197    1.2375    0.0000 C   0  0  0  0  0  0  0  0  0  0  0  0
   21.4341    1.6500    0.0000 O   0  0  0  0  0  0  0  0  0  0  0  0
  1  2  1  0  0  0  0
  2  3  1  0  0  0  0
  3  4  1  0  0  0  0
  4  5  1  0  0  0  0
  5  6  1  0  0  0  0
  6  7  1  0  0  0  0
  7  8  1  0  0  0  0
  8  9  1  0  0  0  0
  9 10  1  0  0  0  0
 10 11  2  0  0  0  0
 11 12  1  0  0  0  0
 12 13  2  0  0  0  0
 13 14  1  0  0  0  0
 14 15  2  0  0  0  0
 10 15  1  0  0  0  0
 13 16  1  0  0  0  0
 16 17  1  0  0  0  0
 17 18  1  0  0  0  0
 18 19  1  0  0  0  0
 19 20  1  0  0  0  0
 20 21  1  0  0  0  0
 21 22  1  0  0  0  0
 22 23  1  0  0  0  0
 23 24  1  0  0  0  0
 24 25  1  0  0  0  0
 25 26  1  0  0  0  0
 26 27  1  0  0  0  0
 27 28  1  0  0  0  0
 28 29  1  0  0  0  0
 29 30  1  0  0  0  0
 30 31  1  0  0  0  0
 31 32  1  0  0  0  0
 32 33  1  0  0  0  0
 33 34  1  0  0  0  0
 34 35  1  0  0  0  0
 35 36  1  0  0  0  0
 36 37  1  0  0  0  0
 37 38  1  0  0  0  0
 38 39  1  0  0  0  0
 39 40  1  0  0  0  0
 40 41  1  0  0  0  0
 41 42  1  0  0  0  0
 42 43  1  0  0  0  0
M  END
> <DRUGBANK_ID>
DB06804

> <DRUG_GROUPS>
approved; withdrawn

> <GENERIC_NAME>
Nonoxynol-9

> <BRANDS>
Advantage 24; Gynoll; Today; VCF

> <CHEMICAL_FORMULA>
C33H60O10

> <MOLECULAR_WEIGHT>
616.8235

> <EXACT_MASS>
616.41864814

> <IUPAC_NAME>
1-(4-nonylphenyl)-1,4,7,10,13,16,19,22,25-nonaoxaheptacosan-27-ol

> <IUPAC_TRADITIONAL_NAME>
nonoxynol 9

> <INCHI_IDENTIFIER>
InChI=1S/C33H60O10/c1-2-3-4-5-6-7-8-9-32-10-12-33(13-11-32)43-31-30-42-29-28-41-27-26-40-25-24-39-23-22-38-21-20-37-19-18-36-17-16-35-15-14-34/h10-13,34H,2-9,14-31H2,1H3

> <INCHI_KEY>
InChIKey=FBWNMEQMRUMQSO-UHFFFAOYSA-N

> <SMILES>
CCCCCCCCCC1=CC=C(OCCOCCOCCOCCOCCOCCOCCOCCOCCO)C=C1

> <JCHEM_ACCEPTOR_COUNT>
10

> <JCHEM_DONOR_COUNT>
1

> <JCHEM_ACIDIC_PKA>
15.12

> <JCHEM_BASIC_PKA>
-2.7

> <JCHEM_PHYSIOLOGICAL_CHARGE>
0

> <ALOGPS_LOGP>
3.49

> <JCHEM_LOGP>
4.82

> <ALOGPS_LOGS>
-6.5

> <JCHEM_POLARIZABILITY>
77.07

> <JCHEM_POLAR_SURFACE_AREA>
103.3

> <JCHEM_REFRACTIVITY>
169.01

> <JCHEM_ROTATABLE_BOND_COUNT>
35

> <ALOGPS_SOLUBILITY>
2.14e-04 g/l __ 

$$$$
