
  Mrv0541 04291311152D          

 44 48  0  0  0  0            999 V2000
   -5.8339    2.6813    0.0000 P   0  0  0  0  0  0  0  0  0  0  0  0
   -5.2506    2.0979    0.0000 O   0  0  0  0  0  0  0  0  0  0  0  0
   -6.4173    2.0979    0.0000 O   0  0  0  0  0  0  0  0  0  0  0  0
   -6.5484    3.0938    0.0000 O   0  0  0  0  0  0  0  0  0  0  0  0
   -5.1195    3.0938    0.0000 N   0  0  0  0  0  0  0  0  0  0  0  0
   -4.7070    3.8082    0.0000 C   0  0  0  0  0  0  0  0  0  0  0  0
   -4.2945    5.0777    0.0000 N   0  0  0  0  0  0  0  0  0  0  0  0
   -4.9619    4.5928    0.0000 S   0  0  0  0  0  0  0  0  0  0  0  0
   -3.8820    3.8082    0.0000 N   0  0  0  0  0  0  0  0  0  0  0  0
   -3.6270    4.5928    0.0000 C   0  0  0  0  0  0  0  0  0  0  0  0
   -2.9126    5.0053    0.0000 C   0  0  0  0  0  0  0  0  0  0  0  0
   -3.1527    5.8929    0.0000 N   0  0  0  0  0  0  0  0  0  0  0  0
   -3.8671    6.3054    0.0000 O   0  0  0  0  0  0  0  0  0  0  0  0
   -4.5816    5.8929    0.0000 C   0  0  0  0  0  0  0  0  0  0  0  0
   -5.2961    6.3054    0.0000 C   0  0  0  0  0  0  0  0  0  0  0  0
   -2.1981    4.5928    0.0000 C   0  0  0  0  0  0  0  0  0  0  0  0
   -1.4836    5.0053    0.0000 N   0  0  0  0  0  0  0  0  0  0  0  0
   -2.1981    3.7678    0.0000 O   0  0  0  0  0  0  0  0  0  0  0  0
   -0.5304    4.6259    0.0000 C   0  0  2  0  0  0  0  0  0  0  0  0
   -0.5304    3.8009    0.0000 C   0  0  0  0  0  0  0  0  0  0  0  0
    0.2946    3.8009    0.0000 N   0  0  0  0  0  0  0  0  0  0  0  0
    0.2946    4.6259    0.0000 C   0  0  2  0  0  0  0  0  0  0  0  0
   -1.1137    3.2175    0.0000 O   0  0  0  0  0  0  0  0  0  0  0  0
    0.2946    5.4509    0.0000 H   0  0  0  0  0  0  0  0  0  0  0  0
    1.0091    5.0384    0.0000 S   0  0  0  0  0  0  0  0  0  0  0  0
    1.0091    3.3884    0.0000 C   0  0  0  0  0  0  0  0  0  0  0  0
    1.7236    3.8009    0.0000 C   0  0  0  0  0  0  0  0  0  0  0  0
    1.7236    4.6259    0.0000 C   0  0  0  0  0  0  0  0  0  0  0  0
    1.0091    2.5634    0.0000 C   0  0  0  0  0  0  0  0  0  0  0  0
    0.2946    2.1509    0.0000 O   0  0  0  0  0  0  0  0  0  0  0  0
    1.7236    2.1509    0.0000 O   0  5  0  0  0  0  0  0  0  0  0  0
    2.4380    3.3884    0.0000 S   0  0  0  0  0  0  0  0  0  0  0  0
    3.1525    3.8009    0.0000 C   0  0  0  0  0  0  0  0  0  0  0  0
    3.8795    4.9204    0.0000 C   0  0  0  0  0  0  0  0  0  0  0  0
    3.1093    4.6247    0.0000 S   0  0  0  0  0  0  0  0  0  0  0  0
    3.9494    3.5874    0.0000 N   0  0  0  0  0  0  0  0  0  0  0  0
    4.3987    4.2792    0.0000 C   0  0  0  0  0  0  0  0  0  0  0  0
    5.2237    4.2792    0.0000 C   0  0  0  0  0  0  0  0  0  0  0  0
    5.6362    4.9937    0.0000 C   0  0  0  0  0  0  0  0  0  0  0  0
    5.6362    3.5647    0.0000 C   0  0  0  0  0  0  0  0  0  0  0  0
    6.4612    3.5647    0.0000 C   0  0  0  0  0  0  0  0  0  0  0  0
    6.8737    4.2792    0.0000 N   0  3  0  0  0  0  0  0  0  0  0  0
    6.4612    4.9937    0.0000 C   0  0  0  0  0  0  0  0  0  0  0  0
    7.6987    4.2792    0.0000 C   0  0  0  0  0  0  0  0  0  0  0  0
  1  2  1  0  0  0  0
  1  3  1  0  0  0  0
  1  4  2  0  0  0  0
  1  5  1  0  0  0  0
  5  6  1  0  0  0  0
  8  6  1  0  0  0  0
  6  9  2  0  0  0  0
  7  8  1  0  0  0  0
  7 10  2  0  0  0  0
  9 10  1  0  0  0  0
 10 11  1  0  0  0  0
 12 13  1  0  0  0  0
 13 14  1  0  0  0  0
 14 15  1  0  0  0  0
 11 16  1  0  0  0  0
 16 17  1  0  0  0  0
 16 18  2  0  0  0  0
 19 17  1  1  0  0  0
 19 20  1  0  0  0  0
 20 21  1  0  0  0  0
 22 19  1  0  0  0  0
 20 23  2  0  0  0  0
 22 24  1  6  0  0  0
 21 26  1  0  0  0  0
 22 21  1  0  0  0  0
 25 22  1  0  0  0  0
 25 28  1  0  0  0  0
 26 27  2  0  0  0  0
 27 28  1  0  0  0  0
 26 29  1  0  0  0  0
 29 30  2  0  0  0  0
 29 31  1  0  0  0  0
 27 32  1  0  0  0  0
 32 33  1  0  0  0  0
 35 33  1  0  0  0  0
 33 36  2  0  0  0  0
 34 35  1  0  0  0  0
 34 37  2  0  0  0  0
 36 37  1  0  0  0  0
 37 38  1  0  0  0  0
 39 38  1  0  0  0  0
 38 40  2  0  0  0  0
 40 41  1  0  0  0  0
 41 42  2  0  0  0  0
 42 43  1  0  0  0  0
 39 43  2  0  0  0  0
 42 44  1  0  0  0  0
 11 12  2  0  0  0  0
M  END
> <DRUGBANK_ID>
DB06590

> <DRUG_GROUPS>
approved; investigational

> <GENERIC_NAME>
Ceftaroline fosamil

> <SYNONYMS>
(6R,7R)-7-[(2Z)-2-ethoxyimino-2-[5-(phosphonoamino)-1,2,4-thiadiazol-3-yl]acetyl]amino]-3-[4-(1-methylpyridin-1-ium-4-yl)-1,3-thiazol-2-yl]sulfanyl]-8-oxo-5-thia-1-azabicyclo[4.2.0]oct-2-ene-2-carboxylate; Ceftaroline; PPI 0903; Teflaro

> <BRANDS>
Teflaro; Zinforo

> <CHEMICAL_FORMULA>
C22H21N8O8PS4

> <MOLECULAR_WEIGHT>
684.685

> <EXACT_MASS>
684.01027896

> <IUPAC_NAME>
4-(2-{[(6R,7R)-2-carboxylato-7-[(2E)-2-(ethoxyimino)-2-[5-(phosphonoamino)-1,2,4-thiadiazol-3-yl]acetamido]-8-oxo-5-thia-1-azabicyclo[4.2.0]oct-2-en-3-yl]sulfanyl}-1,3-thiazol-4-yl)-1-methylpyridin-1-ium

> <IUPAC_TRADITIONAL_NAME>
4-(2-{[(6R,7R)-2-carboxylato-7-[(2E)-2-(ethoxyimino)-2-[5-(phosphonoamino)-1,2,4-thiadiazol-3-yl]acetamido]-8-oxo-5-thia-1-azabicyclo[4.2.0]oct-2-en-3-yl]sulfanyl}-1,3-thiazol-4-yl)-1-methylpyridin-1-ium

> <INCHI_IDENTIFIER>
InChI=1S/C22H21N8O8PS4/c1-3-38-26-13(16-25-21(43-28-16)27-39(35,36)37)17(31)24-14-18(32)30-15(20(33)34)12(9-40-19(14)30)42-22-23-11(8-41-22)10-4-6-29(2)7-5-10/h4-8,14,19H,3,9H2,1-2H3,(H4-,24,25,27,28,31,33,34,35,36,37)/b26-13+/t14-,19-/m1/s1

> <INCHI_KEY>
InChIKey=ZCCUWMICIWSJIX-XHNDKCDBSA-N

> <SMILES>
[H][C@]12SCC(SC3=NC(=CS3)C3=CC=[N+](C)C=C3)=C(N1C(=O)[C@H]2NC(=O)C(=N\OCC)\C1=NSC(NP(O)(O)=O)=N1)C([O-])=O

> <JCHEM_ACCEPTOR_COUNT>
13

> <JCHEM_DONOR_COUNT>
4

> <JCHEM_ACIDIC_PKA>
1.8

> <JCHEM_BASIC_PKA>
0.39

> <JCHEM_PHYSIOLOGICAL_CHARGE>
-2

> <ALOGPS_LOGP>
-0.79

> <JCHEM_LOGP>
-3.7

> <ALOGPS_LOGS>
-4.5

> <JCHEM_POLARIZABILITY>
63.77

> <JCHEM_POLAR_SURFACE_AREA>
223.24

> <JCHEM_REFRACTIVITY>
171.63

> <JCHEM_ROTATABLE_BOND_COUNT>
11

> <ALOGPS_SOLUBILITY>
2.45e-02 g/l __ 

$$$$
