[NO NAME]
  Mrv0541 04211212552D          
Created with ChemWriter - http://chemwriter.com
 25 28  0  0  1  0            999 V2000
   11.5249  -14.3560    0.0000 C   0  0  0  0  0  0  0  0  0  0  0  0
   10.0258  -15.3386    0.0000 C   0  0  0  0  0  0  0  0  0  0  0  0
   10.0258  -12.8637    0.0000 C   0  0  0  0  0  0  0  0  0  0  0  0
   12.0098  -13.6886    0.0000 C   0  0  0  0  0  0  0  0  0  0  0  0
    9.3113  -13.2761    0.0000 C   0  0  0  0  0  0  0  0  0  0  0  0
    7.8824  -14.1011    0.0000 C   0  0  0  0  0  0  0  0  0  0  0  0
    7.8824  -15.7511    0.0000 C   0  0  0  0  0  0  0  0  0  0  0  0
   10.0258  -14.5136    0.0000 C   0  0  2  0  0  0  0  0  0  0  0  0
   10.0258  -13.6886    0.0000 H   0  0  0  0  0  0  0  0  0  0  0  0
    9.3113  -14.1011    0.0000 C   0  0  1  0  0  0  0  0  0  0  0  0
    9.3113  -14.9261    0.0000 H   0  0  0  0  0  0  0  0  0  0  0  0
   10.7402  -13.2761    0.0000 C   0  0  1  0  0  0  0  0  0  0  0  0
   10.7402  -12.4512    0.0000 C   0  0  0  0  0  0  0  0  0  0  0  0
   10.7402  -14.1011    0.0000 C   0  0  1  0  0  0  0  0  0  0  0  0
   10.7402  -14.9261    0.0000 H   0  0  0  0  0  0  0  0  0  0  0  0
    8.5968  -14.5136    0.0000 C   0  0  1  0  0  0  0  0  0  0  0  0
    8.5968  -13.6886    0.0000 C   0  0  0  0  0  0  0  0  0  0  0  0
    7.1679  -14.5136    0.0000 C   0  0  0  0  0  0  0  0  0  0  0  0
    7.1679  -15.3386    0.0000 C   0  0  0  0  0  0  0  0  0  0  0  0
    6.4535  -15.7511    0.0000 O   0  0  0  0  0  0  0  0  0  0  0  0
    8.5968  -15.3386    0.0000 C   0  0  0  0  0  0  0  0  0  0  0  0
    9.3113  -15.7511    0.0000 C   0  0  0  0  0  0  0  0  0  0  0  0
   11.5249  -13.0212    0.0000 C   0  0  2  0  0  0  0  0  0  0  0  0
   12.2393  -13.1423    0.0000 C   0  0  0  0  0  0  0  0  0  0  0  0
   11.5249  -12.1962    0.0000 O   0  0  0  0  0  0  0  0  0  0  0  0
 14  8  1  0  0  0  0
 14 12  1  0  0  0  0
 14  1  1  0  0  0  0
  8 10  1  0  0  0  0
  8  2  1  0  0  0  0
 12 23  1  0  0  0  0
 12  3  1  0  0  0  0
  4  1  1  0  0  0  0
 10 16  1  0  0  0  0
 10  5  1  0  0  0  0
  2 22  1  0  0  0  0
 16 21  1  0  0  0  0
 16  6  1  0  0  0  0
 21  7  2  0  0  0  0
  6 18  1  0  0  0  0
  7 19  1  0  0  0  0
 23  4  1  0  0  0  0
  3  5  1  0  0  0  0
 22 21  1  0  0  0  0
 18 19  1  0  0  0  0
  8  9  1  1  0  0  0
 10 11  1  6  0  0  0
 12 13  1  1  0  0  0
 14 15  1  6  0  0  0
 16 17  1  1  0  0  0
 23 25  1  1  0  0  0
 19 20  2  0  0  0  0
 23 24  1  6  0  0  0
M  END
> <DRUGBANK_ID>
DB06710

> <DRUG_GROUPS>
approved

> <GENERIC_NAME>
Methyltestosterone

> <SYNONYMS>
17-methyltestosterone; 17α-methyl-Δ4-androsten-17β-ol-3-one; 17α-methyltestosterone

> <BRANDS>
Android; Methitest; Testred; Virilon

> <CHEMICAL_FORMULA>
C20H30O2

> <MOLECULAR_WEIGHT>
302.451

> <EXACT_MASS>
302.224580204

> <IUPAC_NAME>
(1S,2R,10R,11S,14S,15S)-14-hydroxy-2,14,15-trimethyltetracyclo[8.7.0.0^{2,7}.0^{11,15}]heptadec-6-en-5-one

> <IUPAC_TRADITIONAL_NAME>
dianabol

> <INCHI_IDENTIFIER>
InChI=1S/C20H30O2/c1-18-9-6-14(21)12-13(18)4-5-15-16(18)7-10-19(2)17(15)8-11-20(19,3)22/h12,15-17,22H,4-11H2,1-3H3/t15-,16+,17+,18+,19+,20+/m1/s1

> <INCHI_KEY>
InChIKey=GCKMFJBGXUYNAG-HLXURNFRSA-N

> <SMILES>
[H][C@@]12CC[C@](C)(O)[C@@]1(C)CC[C@@]1([H])[C@@]2([H])CCC2=CC(=O)CC[C@]12C

> <JCHEM_ACCEPTOR_COUNT>
2

> <JCHEM_DONOR_COUNT>
1

> <JCHEM_ACIDIC_PKA>
19.09

> <JCHEM_BASIC_PKA>
-0.53

> <JCHEM_PHYSIOLOGICAL_CHARGE>
0

> <ALOGPS_LOGP>
3.61

> <JCHEM_LOGP>
3.65

> <ALOGPS_LOGS>
-4.3

> <JCHEM_POLARIZABILITY>
35.65

> <JCHEM_POLAR_SURFACE_AREA>
37.3

> <JCHEM_REFRACTIVITY>
89.07

> <JCHEM_ROTATABLE_BOND_COUNT>
0

> <ALOGPS_SOLUBILITY>
1.39e-02 g/l __ 

$$$$
