Structure #1
  Mrv0541 02241212492D          

 24 28  0  0  0  0            999 V2000
   -0.0891    2.3392    0.0000 C   0  0  0  0  0  0  0  0  0  0  0  0
   -2.5589    2.9649    0.0000 C   0  0  0  0  0  0  0  0  0  0  0  0
   -2.9577    3.0546    0.0000 C   0  0  0  0  0  0  0  0  0  0  0  0
   -0.2557    0.1629    0.0000 C   0  0  0  0  0  0  0  0  0  0  0  0
   -1.0516    0.3802    0.0000 C   0  0  0  0  0  0  0  0  0  0  0  0
   -0.8849    2.5566    0.0000 C   0  0  0  0  0  0  0  0  0  0  0  0
   -2.7512    0.9494    0.0000 C   0  0  0  0  0  0  0  0  0  0  0  0
   -1.6808    2.7739    0.0000 C   0  0  0  0  0  0  0  0  0  0  0  0
   -3.3899    1.4716    0.0000 C   0  0  0  0  0  0  0  0  0  0  0  0
    1.1263    0.5261    0.0000 C   0  0  0  0  0  0  0  0  0  0  0  0
    0.7068    2.1219    0.0000 C   0  0  0  0  0  0  0  0  0  0  0  0
    2.1967    2.3506    0.0000 C   0  0  0  0  0  0  0  0  0  0  0  0
    1.5027    1.9046    0.0000 C   0  0  0  0  0  0  0  0  0  0  0  0
    0.3304    0.7434    0.0000 C   0  0  0  0  0  0  0  0  0  0  0  0
   -1.2613    1.1781    0.0000 C   0  0  0  0  0  0  0  0  0  0  0  0
   -0.6752    1.7587    0.0000 C   0  0  0  0  0  0  0  0  0  0  0  0
   -2.0572    1.3954    0.0000 C   0  0  0  0  0  0  0  0  0  0  0  0
    1.7124    1.1067    0.0000 C   0  0  0  0  0  0  0  0  0  0  0  0
    0.1207    1.5413    0.0000 C   0  0  0  0  0  0  0  0  0  0  0  0
   -2.2669    2.1933    0.0000 C   0  0  0  0  0  0  0  0  0  0  0  0
   -3.0906    2.2404    0.0000 C   0  0  0  0  0  0  0  0  0  0  0  0
    2.8354    1.8284    0.0000 N   0  0  0  0  0  0  0  0  0  0  0  0
    2.5360    1.0596    0.0000 N   0  0  0  0  0  0  0  0  0  0  0  0
   -3.8865    2.4577    0.0000 O   0  0  0  0  0  0  0  0  0  0  0  0
  1 19  1  0  0  0  0
  2 20  1  0  0  0  0
  3 21  1  0  0  0  0
  4  5  1  0  0  0  0
  4 14  1  0  0  0  0
  5 15  1  0  0  0  0
  6  8  1  0  0  0  0
  6 16  1  0  0  0  0
  7  9  1  0  0  0  0
  7 17  1  0  0  0  0
  8 20  1  0  0  0  0
  9 21  1  0  0  0  0
 10 14  1  0  0  0  0
 10 18  1  0  0  0  0
 11 13  1  0  0  0  0
 11 19  1  0  0  0  0
 12 13  2  0  0  0  0
 12 22  1  0  0  0  0
 13 18  1  0  0  0  0
 14 19  1  0  0  0  0
 15 16  1  0  0  0  0
 15 17  1  0  0  0  0
 16 19  1  0  0  0  0
 17 20  1  0  0  0  0
 18 23  2  0  0  0  0
 20 21  1  0  0  0  0
 21 24  1  0  0  0  0
 22 23  1  0  0  0  0
M  END
> <DRUGBANK_ID>
DB06718

> <DRUG_GROUPS>
approved

> <GENERIC_NAME>
Stanozolol

> <BRANDS>
Stromba; Winstrol; Winstrol Depot

> <CHEMICAL_FORMULA>
C21H32N2O

> <MOLECULAR_WEIGHT>
328.4916

> <EXACT_MASS>
328.251463656

> <IUPAC_NAME>
2,17,18-trimethyl-6,7-diazapentacyclo[11.7.0.0^{2,10}.0^{4,8}.0^{14,18}]icosa-4,7-dien-17-ol

> <IUPAC_TRADITIONAL_NAME>
2,17,18-trimethyl-6,7-diazapentacyclo[11.7.0.0^{2,10}.0^{4,8}.0^{14,18}]icosa-4,7-dien-17-ol

> <INCHI_IDENTIFIER>
InChI=1S/C21H32N2O/c1-19-11-13-12-22-23-18(13)10-14(19)4-5-15-16(19)6-8-20(2)17(15)7-9-21(20,3)24/h12,14-17,24H,4-11H2,1-3H3,(H,22,23)

> <INCHI_KEY>
InChIKey=LKAJKIOFIWVMDJ-UHFFFAOYSA-N

> <SMILES>
CC1(O)CCC2C3CCC4CC5=NNC=C5CC4(C)C3CCC12C

> <JCHEM_ACCEPTOR_COUNT>
2

> <JCHEM_DONOR_COUNT>
2

> <JCHEM_ACIDIC_PKA>
16.23

> <JCHEM_BASIC_PKA>
2.86

> <JCHEM_PHYSIOLOGICAL_CHARGE>
0

> <ALOGPS_LOGP>
4.33

> <JCHEM_LOGP>
3.81

> <ALOGPS_LOGS>
-5.3

> <JCHEM_POLARIZABILITY>
39.29

> <JCHEM_POLAR_SURFACE_AREA>
48.91

> <JCHEM_REFRACTIVITY>
96.8

> <JCHEM_ROTATABLE_BOND_COUNT>
0

> <ALOGPS_SOLUBILITY>
1.73e-03 g/l __ 

$$$$
