
  Mrv0541 02231218172D          

 22 23  0  0  0  0            999 V2000
    9.5094   -2.6813    0.0000 F   0  0  0  0  0  0  0  0  0  0  0  0
    2.3645    1.4438    0.0000 O   0  0  0  0  0  0  0  0  0  0  0  0
    3.7935    1.4438    0.0000 O   0  0  0  0  0  0  0  0  0  0  0  0
    5.9370   -1.4438    0.0000 N   0  0  0  0  0  0  0  0  0  0  0  0
    4.5080   -1.4438    0.0000 N   0  0  0  0  0  0  0  0  0  0  0  0
    3.0791    0.2063    0.0000 N   0  0  0  0  0  0  0  0  0  0  0  0
    3.0791   -1.4438    0.0000 N   0  0  0  0  0  0  0  0  0  0  0  0
    6.6515   -1.0313    0.0000 C   0  0  0  0  0  0  0  0  0  0  0  0
    7.3659   -1.4438    0.0000 C   0  0  0  0  0  0  0  0  0  0  0  0
    5.2224   -1.0313    0.0000 C   0  0  0  0  0  0  0  0  0  0  0  0
    3.7935   -0.2063    0.0000 C   0  0  0  0  0  0  0  0  0  0  0  0
    5.2224   -0.2063    0.0000 C   0  0  0  0  0  0  0  0  0  0  0  0
    3.7935   -1.0313    0.0000 C   0  0  0  0  0  0  0  0  0  0  0  0
    8.0804   -1.0313    0.0000 C   0  0  0  0  0  0  0  0  0  0  0  0
    7.3659   -2.2688    0.0000 C   0  0  0  0  0  0  0  0  0  0  0  0
    4.5080    0.2063    0.0000 C   0  0  0  0  0  0  0  0  0  0  0  0
    8.7949   -1.4438    0.0000 C   0  0  0  0  0  0  0  0  0  0  0  0
    8.0804   -2.6813    0.0000 C   0  0  0  0  0  0  0  0  0  0  0  0
    8.7949   -2.2688    0.0000 C   0  0  0  0  0  0  0  0  0  0  0  0
    3.0791    1.0313    0.0000 C   0  0  0  0  0  0  0  0  0  0  0  0
    2.3645    2.2688    0.0000 C   0  0  0  0  0  0  0  0  0  0  0  0
    1.6500    2.6813    0.0000 C   0  0  0  0  0  0  0  0  0  0  0  0
  1 19  1  0  0  0  0
  2 20  1  0  0  0  0
  2 21  1  0  0  0  0
  3 20  2  0  0  0  0
  4  8  1  0  0  0  0
  4 10  1  0  0  0  0
  5 10  2  0  0  0  0
  5 13  1  0  0  0  0
  6 11  1  0  0  0  0
  6 20  1  0  0  0  0
  7 13  1  0  0  0  0
  8  9  1  0  0  0  0
  9 14  2  0  0  0  0
  9 15  1  0  0  0  0
 10 12  1  0  0  0  0
 11 13  2  0  0  0  0
 11 16  1  0  0  0  0
 12 16  2  0  0  0  0
 14 17  1  0  0  0  0
 15 18  2  0  0  0  0
 17 19  2  0  0  0  0
 18 19  1  0  0  0  0
 21 22  1  0  0  0  0
M  END
> <DRUGBANK_ID>
DB06623

> <DRUG_GROUPS>
approved; investigational

> <GENERIC_NAME>
Flupirtine

> <SALTS>
Flupirtine maleate

> <BRANDS>
Awegal; Effirma; Efiret; Katadolon; Metanor; Trancolong

> <CHEMICAL_FORMULA>
C15H17FN4O2

> <MOLECULAR_WEIGHT>
304.3195

> <EXACT_MASS>
304.133554013

> <IUPAC_NAME>
ethyl N-(2-amino-6-{[(4-fluorophenyl)methyl]amino}pyridin-3-yl)carbamate

> <IUPAC_TRADITIONAL_NAME>
flupirtine

> <INCHI_IDENTIFIER>
InChI=1S/C15H17FN4O2/c1-2-22-15(21)19-12-7-8-13(20-14(12)17)18-9-10-3-5-11(16)6-4-10/h3-8H,2,9H2,1H3,(H,19,21)(H3,17,18,20)

> <INCHI_KEY>
InChIKey=JUUFBMODXQKSTD-UHFFFAOYSA-N

> <SMILES>
CCOC(=O)NC1=C(N)N=C(NCC2=CC=C(F)C=C2)C=C1

> <JCHEM_ACCEPTOR_COUNT>
5

> <JCHEM_DONOR_COUNT>
3

> <JCHEM_ACIDIC_PKA>
12.9

> <JCHEM_BASIC_PKA>
7.5

> <JCHEM_PHYSIOLOGICAL_CHARGE>
1

> <ALOGPS_LOGP>
2.61

> <JCHEM_LOGP>
2.67

> <ALOGPS_LOGS>
-3.6

> <JCHEM_POLARIZABILITY>
31.37

> <JCHEM_POLAR_SURFACE_AREA>
89.27

> <JCHEM_REFRACTIVITY>
85.49

> <JCHEM_ROTATABLE_BOND_COUNT>
6

> <ALOGPS_SOLUBILITY>
7.32e-02 g/l __ 

$$$$
