
  Mrv0541 01101412212D          

 28 30  0  0  0  0            999 V2000
    6.1792  -24.6708    0.0000 C    0  0  2  0  0  0  0  0  0  0  0  0
    6.1792  -25.4958    0.0000 C    0  0  2  0  0  0  0  0  0  0  0  0
    6.8912  -25.9042    0.0000 C    0  0  1  0  0  0  0  0  0  0  0  0
    7.6032  -25.4958    0.0000 C    0  0  2  0  0  0  0  0  0  0  0  0
    7.6032  -24.6708    0.0000 C    0  0  1  0  0  0  0  0  0  0  0  0
    6.8912  -24.2542    0.0000 O    0  0  0  0  0  0  0  0  0  0  0  0
    8.3189  -24.2604    0.0000 C    0  0  0  0  0  0  0  0  0  0  0  0
    5.4635  -24.2604    0.0000 C    0  0  0  0  0  0  0  0  0  0  0  0
    8.3171  -25.9094    0.0000 O    0  0  0  0  0  0  0  0  0  0  0  0
    5.4653  -25.9094    0.0000 O    0  0  0  0  0  0  0  0  0  0  0  0
    6.8912  -26.7291    0.0000 O    0  0  0  0  0  0  0  0  0  0  0  0
    5.4611  -23.4354    0.0000 O    0  0  0  0  0  0  0  0  0  0  0  0
    9.0288  -24.6788    0.0000 C    0  0  0  0  0  0  0  0  0  0  0  0
    9.7439  -24.2691    0.0000 C    0  0  0  0  0  0  0  0  0  0  0  0
    9.7468  -23.4432    0.0000 C    0  0  0  0  0  0  0  0  0  0  0  0
    9.0285  -23.0288    0.0000 C    0  0  0  0  0  0  0  0  0  0  0  0
    8.3163  -23.4409    0.0000 C    0  0  0  0  0  0  0  0  0  0  0  0
   10.4619  -23.0319    0.0000 Cl   0  0  0  0  0  0  0  0  0  0  0  0
   10.4570  -24.6840    0.0000 C    0  0  0  0  0  0  0  0  0  0  0  0
   11.1729  -24.2740    0.0000 C    0  0  0  0  0  0  0  0  0  0  0  0
   11.8817  -24.6920    0.0000 C    0  0  0  0  0  0  0  0  0  0  0  0
   12.5971  -24.2826    0.0000 C    0  0  0  0  0  0  0  0  0  0  0  0
   12.6004  -23.4568    0.0000 C    0  0  0  0  0  0  0  0  0  0  0  0
   11.8823  -23.0420    0.0000 C    0  0  0  0  0  0  0  0  0  0  0  0
   11.1698  -23.4538    0.0000 C    0  0  0  0  0  0  0  0  0  0  0  0
   13.3157  -23.0458    0.0000 O    0  0  0  0  0  0  0  0  0  0  0  0
   14.0293  -23.4598    0.0000 C    0  0  0  0  0  0  0  0  0  0  0  0
   14.7446  -23.0488    0.0000 C    0  0  0  0  0  0  0  0  0  0  0  0
 13 14  1  0  0  0  0
  5  7  1  1  0  0  0
 14 15  2  0  0  0  0
  1  2  1  0  0  0  0
 15 16  1  0  0  0  0
  1  8  1  1  0  0  0
 16 17  2  0  0  0  0
 17  7  1  0  0  0  0
  1  6  1  0  0  0  0
 15 18  1  0  0  0  0
  4  9  1  6  0  0  0
 14 19  1  0  0  0  0
  2  3  1  0  0  0  0
 19 20  1  0  0  0  0
  2 10  1  6  0  0  0
 20 21  2  0  0  0  0
  3  4  1  0  0  0  0
 21 22  1  0  0  0  0
  3 11  1  1  0  0  0
 22 23  2  0  0  0  0
  4  5  1  0  0  0  0
 23 24  1  0  0  0  0
  8 12  1  0  0  0  0
 24 25  2  0  0  0  0
 25 20  1  0  0  0  0
  5  6  1  0  0  0  0
 23 26  1  0  0  0  0
  7 13  2  0  0  0  0
 26 27  1  0  0  0  0
 27 28  1  0  0  0  0
M  END
> <DRUGBANK_ID>
DB06292

> <DRUG_GROUPS>
approved

> <GENERIC_NAME>
Dapagliflozin

> <BRANDS>
Farxiga

> <CHEMICAL_FORMULA>
C21H25ClO6

> <MOLECULAR_WEIGHT>
408.873

> <EXACT_MASS>
408.133966239

> <IUPAC_NAME>
(2S,3R,4R,5S,6R)-2-{4-chloro-3-[(4-ethoxyphenyl)methyl]phenyl}-6-(hydroxymethyl)oxane-3,4,5-triol

> <IUPAC_TRADITIONAL_NAME>
dapagliflozin

> <INCHI_IDENTIFIER>
InChI=1/C21H25ClO6/c1-2-27-15-6-3-12(4-7-15)9-14-10-13(5-8-16(14)22)21-20(26)19(25)18(24)17(11-23)28-21/h3-8,10,17-21,23-26H,2,9,11H2,1H3/t17-,18-,19+,20-,21+/s2

> <INCHI_KEY>
InChIKey=JVHXJTBJCFBINQ-IUASJKBENA-N

> <SMILES>
CCOC1=CC=C(CC2=C(Cl)C=CC(=C2)[C@@H]2O[C@H](CO)[C@@H](O)[C@H](O)[C@H]2O)C=C1

> <JCHEM_ACCEPTOR_COUNT>
6

> <JCHEM_DONOR_COUNT>
4

> <JCHEM_ACIDIC_PKA>
12.57

> <JCHEM_BASIC_PKA>
-3

> <JCHEM_PHYSIOLOGICAL_CHARGE>
0

> <ALOGPS_LOGP>
2.52

> <JCHEM_LOGP>
2.11

> <ALOGPS_LOGS>
-3.4

> <JCHEM_POLARIZABILITY>
42.36

> <JCHEM_POLAR_SURFACE_AREA>
99.38

> <JCHEM_REFRACTIVITY>
104.93

> <JCHEM_ROTATABLE_BOND_COUNT>
6

> <ALOGPS_SOLUBILITY>
1.73e-01 g/l __ 

$$$$
