242
  Mrv0541 02241213052D          

 31 34  0  0  0  0            999 V2000
   -2.3066   -0.6138    0.0000 C   0  0  0  0  0  0  0  0  0  0  0  0
   -1.5921   -1.0263    0.0000 C   0  0  0  0  0  0  0  0  0  0  0  0
   -1.5921   -1.8513    0.0000 C   0  0  0  0  0  0  0  0  0  0  0  0
   -2.3066   -2.2638    0.0000 N   0  0  0  0  0  0  0  0  0  0  0  0
   -3.0211   -1.8513    0.0000 C   0  0  0  0  0  0  0  0  0  0  0  0
   -3.0211   -1.0263    0.0000 N   0  0  0  0  0  0  0  0  0  0  0  0
   -0.8776   -0.6138    0.0000 C   0  0  0  0  0  0  0  0  0  0  0  0
   -0.1632   -1.0263    0.0000 C   0  0  0  0  0  0  0  0  0  0  0  0
   -0.1632   -1.8513    0.0000 C   0  0  0  0  0  0  0  0  0  0  0  0
   -0.8776   -2.2638    0.0000 C   0  0  0  0  0  0  0  0  0  0  0  0
   -3.7355   -2.2638    0.0000 N   0  0  0  0  0  0  0  0  0  0  0  0
    0.5513   -0.6138    0.0000 C   0  0  0  0  0  0  0  0  0  0  0  0
    1.2658   -1.0263    0.0000 C   0  0  0  0  0  0  0  0  0  0  0  0
    1.9802   -0.6138    0.0000 C   0  0  0  0  0  0  0  0  0  0  0  0
    1.9802    0.2112    0.0000 C   0  0  0  0  0  0  0  0  0  0  0  0
    1.2658    0.6237    0.0000 C   0  0  0  0  0  0  0  0  0  0  0  0
    0.5513    0.2112    0.0000 C   0  0  0  0  0  0  0  0  0  0  0  0
   -0.1632    0.6237    0.0000 C   0  0  0  0  0  0  0  0  0  0  0  0
    2.6947   -1.0263    0.0000 C   0  0  0  0  0  0  0  0  0  0  0  0
    3.4092   -0.6138    0.0000 O   0  0  0  0  0  0  0  0  0  0  0  0
    2.6947   -1.8513    0.0000 N   0  0  0  0  0  0  0  0  0  0  0  0
    3.4092   -2.2638    0.0000 C   0  0  0  0  0  0  0  0  0  0  0  0
    3.4092   -3.0888    0.0000 C   0  0  0  0  0  0  0  0  0  0  0  0
    4.1236   -3.5013    0.0000 C   0  0  0  0  0  0  0  0  0  0  0  0
    4.8381   -3.0888    0.0000 C   0  0  0  0  0  0  0  0  0  0  0  0
    4.8381   -2.2638    0.0000 C   0  0  0  0  0  0  0  0  0  0  0  0
    4.1236   -1.8513    0.0000 C   0  0  0  0  0  0  0  0  0  0  0  0
    4.1236   -4.3263    0.0000 C   0  0  0  0  0  0  0  0  0  0  0  0
    4.1236   -5.1513    0.0000 F   0  0  0  0  0  0  0  0  0  0  0  0
    3.2986   -4.3263    0.0000 F   0  0  0  0  0  0  0  0  0  0  0  0
    4.9486   -4.3263    0.0000 F   0  0  0  0  0  0  0  0  0  0  0  0
  1  6  2  0  0  0  0
  1  2  1  0  0  0  0
  2  7  2  0  0  0  0
  2  3  1  0  0  0  0
  3  4  1  0  0  0  0
  3 10  2  0  0  0  0
  4  5  2  0  0  0  0
  5  6  1  0  0  0  0
  5 11  1  0  0  0  0
  7  8  1  0  0  0  0
  8 12  1  0  0  0  0
  8  9  2  0  0  0  0
  9 10  1  0  0  0  0
 12 17  1  0  0  0  0
 12 13  2  0  0  0  0
 13 14  1  0  0  0  0
 14 15  2  0  0  0  0
 14 19  1  0  0  0  0
 15 16  1  0  0  0  0
 16 17  2  0  0  0  0
 17 18  1  0  0  0  0
 19 21  1  0  0  0  0
 19 20  2  0  0  0  0
 21 22  1  0  0  0  0
 22 27  2  0  0  0  0
 22 23  1  0  0  0  0
 23 24  2  0  0  0  0
 24 25  1  0  0  0  0
 24 28  1  0  0  0  0
 25 26  2  0  0  0  0
 26 27  1  0  0  0  0
 28 30  1  0  0  0  0
 28 31  1  0  0  0  0
 28 29  1  0  0  0  0
M  END
> <DRUGBANK_ID>
DB06925

> <DRUG_GROUPS>
experimental

> <GENERIC_NAME>
3-(2-AMINOQUINAZOLIN-6-YL)-4-METHYL-N-[3-(TRIFLUOROMETHYL)PHENYL]BENZAMIDE

> <CHEMICAL_FORMULA>
C23H17F3N4O

> <MOLECULAR_WEIGHT>
422.4025

> <EXACT_MASS>
422.135445801

> <IUPAC_NAME>
3-(2-aminoquinazolin-6-yl)-4-methyl-N-[3-(trifluoromethyl)phenyl]benzamide

> <IUPAC_TRADITIONAL_NAME>
3-(2-aminoquinazolin-6-yl)-4-methyl-N-[3-(trifluoromethyl)phenyl]benzamide

> <INCHI_IDENTIFIER>
InChI=1S/C23H17F3N4O/c1-13-5-6-15(21(31)29-18-4-2-3-17(11-18)23(24,25)26)10-19(13)14-7-8-20-16(9-14)12-28-22(27)30-20/h2-12H,1H3,(H,29,31)(H2,27,28,30)

> <INCHI_KEY>
InChIKey=YEIASMOUYNOXGA-UHFFFAOYSA-N

> <SMILES>
CC1=CC=C(C=C1C1=CC=C2N=C(N)N=CC2=C1)C(=O)NC1=CC=CC(=C1)C(F)(F)F

> <JCHEM_ACCEPTOR_COUNT>
4

> <JCHEM_DONOR_COUNT>
2

> <JCHEM_ACIDIC_PKA>
11.49

> <JCHEM_BASIC_PKA>
4.04

> <JCHEM_PHYSIOLOGICAL_CHARGE>
0

> <ALOGPS_LOGP>
4.34

> <JCHEM_LOGP>
5.41

> <ALOGPS_LOGS>
-5.6

> <JCHEM_POLARIZABILITY>
42.03

> <JCHEM_POLAR_SURFACE_AREA>
80.9

> <JCHEM_REFRACTIVITY>
115.13

> <JCHEM_ROTATABLE_BOND_COUNT>
4

> <ALOGPS_SOLUBILITY>
9.88e-04 g/l __ 

$$$$
