
  Mrv0541 04071316462D          

  8  8  0  0  0  0            999 V2000
   -0.4420    1.9152    0.0000 C   0  0  0  0  0  0  0  0  0  0  0  0
   -1.1564    1.5027    0.0000 C   0  0  0  0  0  0  0  0  0  0  0  0
   -1.1564    0.6777    0.0000 C   0  0  0  0  0  0  0  0  0  0  0  0
   -0.4420    0.2652    0.0000 C   0  0  0  0  0  0  0  0  0  0  0  0
    0.2725    0.6777    0.0000 C   0  0  0  0  0  0  0  0  0  0  0  0
    0.2725    1.5027    0.0000 C   0  0  0  0  0  0  0  0  0  0  0  0
   -0.0295    2.6297    0.0000 C   0  0  0  0  0  0  0  0  0  0  0  0
   -0.4420    3.3441    0.0000 O   0  0  0  0  0  0  0  0  0  0  0  0
  1  2  1  0  0  0  0
  1  6  2  0  0  0  0
  2  3  2  0  0  0  0
  3  4  1  0  0  0  0
  4  5  2  0  0  0  0
  5  6  1  0  0  0  0
  1  7  1  0  0  0  0
  7  8  1  0  0  0  0
M  END
> <DRUGBANK_ID>
DB06770

> <DRUG_GROUPS>
approved

> <GENERIC_NAME>
Benzyl alcohol

> <SYNONYMS>
(Hydroxymethyl)benzene; Alcoolbenzylique; Bentalol; Benzalalcohol; Benzalcohol; Benzenemethanol; Benzoyl alcohol; Phenylmethanol

> <BRANDS>
Ulesfia

> <CHEMICAL_FORMULA>
C7H8O

> <MOLECULAR_WEIGHT>
108.1378

> <EXACT_MASS>
108.057514878

> <IUPAC_NAME>
phenylmethanol

> <IUPAC_TRADITIONAL_NAME>
benzyl alcohol

> <INCHI_IDENTIFIER>
InChI=1S/C7H8O/c8-6-7-4-2-1-3-5-7/h1-5,8H,6H2

> <INCHI_KEY>
InChIKey=WVDDGKGOMKODPV-UHFFFAOYSA-N

> <SMILES>
OCC1=CC=CC=C1

> <JCHEM_ACCEPTOR_COUNT>
1

> <JCHEM_DONOR_COUNT>
1

> <JCHEM_ACIDIC_PKA>
15.02

> <JCHEM_BASIC_PKA>
-2.8

> <JCHEM_PHYSIOLOGICAL_CHARGE>
0

> <ALOGPS_LOGP>
1.07

> <JCHEM_LOGP>
1.21

> <ALOGPS_LOGS>
-0.61

> <JCHEM_POLARIZABILITY>
11.89

> <JCHEM_POLAR_SURFACE_AREA>
20.23

> <JCHEM_REFRACTIVITY>
32.87

> <JCHEM_ROTATABLE_BOND_COUNT>
1

> <ALOGPS_SOLUBILITY>
2.68e+01 g/l __ 

$$$$
