
  Mrv0541 02241213002D          

 77 84  0  0  1  0            999 V2000
   15.1996   -4.8731    0.0000 C   0  0  0  0  0  0  0  0  0  0  0  0
   15.9141   -4.4606    0.0000 C   0  0  0  0  0  0  0  0  0  0  0  0
   16.6285   -4.8731    0.0000 C   0  0  0  0  0  0  0  0  0  0  0  0
   17.3430   -4.4606    0.0000 C   0  0  0  0  0  0  0  0  0  0  0  0
   18.0575   -4.8731    0.0000 C   0  0  1  0  0  0  0  0  0  0  0  0
   18.7719   -4.4606    0.0000 O   0  0  0  0  0  0  0  0  0  0  0  0
   19.4864   -4.8731    0.0000 C   0  0  1  0  0  0  0  0  0  0  0  0
   18.0661   -3.9852    0.0000 C   0  0  0  0  0  0  0  0  0  0  0  0
   20.2009   -4.4606    0.0000 C   0  0  1  0  0  0  0  0  0  0  0  0
   20.9154   -4.8731    0.0000 C   0  0  2  0  0  0  0  0  0  0  0  0
   20.9154   -5.6981    0.0000 C   0  0  1  0  0  0  0  0  0  0  0  0
   20.2009   -6.1106    0.0000 C   0  0  2  0  0  0  0  0  0  0  0  0
   19.4864   -5.6981    0.0000 O   0  0  0  0  0  0  0  0  0  0  0  0
   20.2008   -3.6356    0.0000 O   0  0  0  0  0  0  0  0  0  0  0  0
   21.6298   -4.4606    0.0000 O   0  0  0  0  0  0  0  0  0  0  0  0
   21.6298   -6.1106    0.0000 O   0  0  0  0  0  0  0  0  0  0  0  0
   20.2009   -6.9356    0.0000 C   0  0  0  0  0  0  0  0  0  0  0  0
   20.9154   -7.3481    0.0000 O   0  0  0  0  0  0  0  0  0  0  0  0
   14.4851   -4.4606    0.0000 C   0  0  0  0  0  0  0  0  0  0  0  0
   15.1996   -5.6981    0.0000 C   0  0  0  0  0  0  0  0  0  0  0  0
   13.7813   -8.1591    0.0000 C   0  0  0  0  0  0  0  0  0  0  0  0
   14.4958   -7.7466    0.0000 C   0  0  2  0  0  0  0  0  0  0  0  0
   15.2103   -8.1591    0.0000 C   0  0  0  0  0  0  0  0  0  0  0  0
   15.2103   -8.9841    0.0000 C   0  0  2  0  0  0  0  0  0  0  0  0
   14.4958   -9.3966    0.0000 C   0  0  0  0  0  0  0  0  0  0  0  0
   13.7813   -8.9841    0.0000 C   0  0  1  0  0  0  0  0  0  0  0  0
   15.9247   -7.7466    0.0000 C   0  0  2  0  0  0  0  0  0  0  0  0
   16.6392   -8.1591    0.0000 C   0  0  1  0  0  0  0  0  0  0  0  0
   16.6392   -8.9841    0.0000 C   0  0  0  0  0  0  0  0  0  0  0  0
   15.9247   -9.3966    0.0000 C   0  0  0  0  0  0  0  0  0  0  0  0
   15.9247   -6.9216    0.0000 C   0  0  0  0  0  0  0  0  0  0  0  0
   16.6392   -6.5091    0.0000 C   0  0  2  0  0  0  0  0  0  0  0  0
   17.3537   -6.9216    0.0000 C   0  0  1  0  0  0  0  0  0  0  0  0
   17.3537   -7.7466    0.0000 C   0  0  1  0  0  0  0  0  0  0  0  0
   18.0681   -6.5091    0.0000 C   0  0  2  0  0  0  0  0  0  0  0  0
   18.7826   -6.9216    0.0000 C   0  0  0  0  0  0  0  0  0  0  0  0
   18.7826   -7.7466    0.0000 C   0  0  0  0  0  0  0  0  0  0  0  0
   16.6118   -5.6352    0.0000 O   0  0  0  0  0  0  0  0  0  0  0  0
   14.4585   -6.8937    0.0000 C   0  0  0  0  0  0  0  0  0  0  0  0
   16.6118   -7.2852    0.0000 C   0  0  0  0  0  0  0  0  0  0  0  0
   17.3390   -8.6275    0.0000 C   0  0  0  0  0  0  0  0  0  0  0  0
   13.8712   -9.9140    0.0000 C   0  0  0  0  0  0  0  0  0  0  0  0
   15.1017   -9.9000    0.0000 C   0  0  0  0  0  0  0  0  0  0  0  0
   13.0741   -9.3127    0.0000 O   0  0  0  0  0  0  0  0  0  0  0  0
   22.3336   -9.8163    0.0000 C   0  0  0  0  0  0  0  0  0  0  0  0
   21.6189   -9.3985    0.0000 C   0  0  2  0  0  0  0  0  0  0  0  0
   20.9154   -9.8108    0.0000 C   0  0  2  0  0  0  0  0  0  0  0  0
   20.2007   -9.4039    0.0000 C   0  0  1  0  0  0  0  0  0  0  0  0
   20.2007   -8.5850    0.0000 C   0  0  2  0  0  0  0  0  0  0  0  0
   20.9154   -8.1726    0.0000 C   0  0  1  0  0  0  0  0  0  0  0  0
   21.6189   -8.5795    0.0000 O   0  0  0  0  0  0  0  0  0  0  0  0
   19.4861   -9.8163    0.0000 O   0  0  0  0  0  0  0  0  0  0  0  0
   19.4861   -8.1726    0.0000 O   0  0  0  0  0  0  0  0  0  0  0  0
   20.9154  -10.6354    0.0000 O   0  0  0  0  0  0  0  0  0  0  0  0
   23.0481   -9.4039    0.0000 O   0  0  0  0  0  0  0  0  0  0  0  0
   12.3597   -8.9002    0.0000 C   0  0  1  0  0  0  0  0  0  0  0  0
   11.6452   -9.3127    0.0000 C   0  0  1  0  0  0  0  0  0  0  0  0
   10.9307   -8.9002    0.0000 C   0  0  2  0  0  0  0  0  0  0  0  0
   10.9307   -8.0752    0.0000 C   0  0  1  0  0  0  0  0  0  0  0  0
   11.6452   -7.6627    0.0000 C   0  0  2  0  0  0  0  0  0  0  0  0
   12.3597   -8.0752    0.0000 O   0  0  0  0  0  0  0  0  0  0  0  0
   10.2162   -9.3127    0.0000 O   0  0  0  0  0  0  0  0  0  0  0  0
   10.2162   -7.6627    0.0000 O   0  0  0  0  0  0  0  0  0  0  0  0
   11.6452   -6.8377    0.0000 C   0  0  0  0  0  0  0  0  0  0  0  0
   10.9307   -6.4252    0.0000 O   0  0  0  0  0  0  0  0  0  0  0  0
   11.6893  -10.5991    0.0000 O   0  0  0  0  0  0  0  0  0  0  0  0
   10.8643  -11.1725    0.0000 C   0  0  1  0  0  0  0  0  0  0  0  0
   10.1400  -10.7774    0.0000 C   0  0  1  0  0  0  0  0  0  0  0  0
    9.4357  -11.2071    0.0000 C   0  0  2  0  0  0  0  0  0  0  0  0
    9.4557  -12.0318    0.0000 C   0  0  1  0  0  0  0  0  0  0  0  0
   10.1800  -12.4269    0.0000 C   0  0  2  0  0  0  0  0  0  0  0  0
   10.8842  -11.9972    0.0000 O   0  0  0  0  0  0  0  0  0  0  0  0
    8.7114  -10.8121    0.0000 O   0  0  0  0  0  0  0  0  0  0  0  0
    8.7515  -12.4616    0.0000 O   0  0  0  0  0  0  0  0  0  0  0  0
   10.2000  -13.1818    0.0000 C   0  0  0  0  0  0  0  0  0  0  0  0
    9.4958  -13.6814    0.0000 O   0  0  0  0  0  0  0  0  0  0  0  0
   10.1377   -9.9979    0.0000 O   0  0  0  0  0  0  0  0  0  0  0  0
  2  1  2  0  0  0  0
  3  2  1  0  0  0  0
  4  3  1  0  0  0  0
  5  4  1  0  0  0  0
  5  6  1  6  0  0  0
  7  6  1  1  0  0  0
  5  8  1  1  0  0  0
  7  9  1  0  0  0  0
  9 10  1  0  0  0  0
 10 11  1  0  0  0  0
 11 12  1  0  0  0  0
 12 13  1  0  0  0  0
 13  7  1  0  0  0  0
  9 14  1  6  0  0  0
 10 15  1  1  0  0  0
 11 16  1  6  0  0  0
 12 17  1  1  0  0  0
 17 18  1  0  0  0  0
  1 19  1  0  0  0  0
  1 20  1  0  0  0  0
 21 22  1  0  0  0  0
 22 23  1  0  0  0  0
 24 25  1  1  0  0  0
 25 26  1  0  0  0  0
 26 21  1  0  0  0  0
 27 23  1  1  0  0  0
 28 29  1  0  0  0  0
 29 30  1  0  0  0  0
 30 24  1  0  0  0  0
 24 23  1  0  0  0  0
 31 32  1  0  0  0  0
 32 33  1  0  0  0  0
 34 28  1  0  0  0  0
 28 27  1  0  0  0  0
 27 31  1  0  0  0  0
 33 35  1  0  0  0  0
 35 36  1  0  0  0  0
 36 37  1  0  0  0  0
 33 34  1  6  0  0  0
 34 37  1  0  0  0  0
 35  5  1  1  0  0  0
 32 38  1  1  0  0  0
 22 39  1  1  0  0  0
 28 40  1  1  0  0  0
 34 41  1  6  0  0  0
 25 42  1  0  0  0  0
 25 43  1  0  0  0  0
 26 44  1  1  0  0  0
 46 45  1  6  0  0  0
 46 47  1  0  0  0  0
 47 48  1  0  0  0  0
 48 49  1  0  0  0  0
 49 50  1  0  0  0  0
 50 51  1  0  0  0  0
 51 46  1  0  0  0  0
 48 52  1  6  0  0  0
 49 53  1  1  0  0  0
 50 18  1  6  0  0  0
 47 54  1  1  0  0  0
 45 55  1  0  0  0  0
 56 44  1  1  0  0  0
 56 57  1  0  0  0  0
 57 58  1  0  0  0  0
 58 59  1  0  0  0  0
 59 60  1  0  0  0  0
 60 61  1  0  0  0  0
 61 56  1  0  0  0  0
 58 62  1  1  0  0  0
 59 63  1  6  0  0  0
 60 64  1  1  0  0  0
 64 65  1  0  0  0  0
 67 66  1  6  0  0  0
 67 68  1  0  0  0  0
 68 69  1  0  0  0  0
 69 70  1  0  0  0  0
 70 71  1  0  0  0  0
 71 72  1  0  0  0  0
 72 67  1  0  0  0  0
 69 73  1  6  0  0  0
 70 74  1  1  0  0  0
 71 75  1  6  0  0  0
 75 76  1  0  0  0  0
 57 66  1  6  0  0  0
 68 77  1  1  0  0  0
M  END
> <DRUGBANK_ID>
DB06749

> <DRUG_GROUPS>
nutraceutical

> <GENERIC_NAME>
ginsenoside Rb1

> <SYNONYMS>


> <CHEMICAL_FORMULA>
C54H92O23

> <MOLECULAR_WEIGHT>
1109.2945

> <EXACT_MASS>
1108.60293925

> <IUPAC_NAME>
(2S,3R,4S,5S,6R)-2-{[(2S)-2-[(1R,3R,5S,7R,10R,11R,14S,15R,16R)-5-{[(2R,3R,4S,5S,6R)-4,5-dihydroxy-6-(hydroxymethyl)-3-{[(2S,3R,4S,5S,6R)-3,4,5-trihydroxy-6-(hydroxymethyl)oxan-2-yl]oxy}oxan-2-yl]oxy}-16-hydroxy-3,6,6,10,11-pentamethyltetracyclo[8.7.0.0^{2,7}.0^{11,15}]heptadecan-14-yl]-6-methylhept-5-en-2-yl]oxy}-6-({[(2R,3R,4S,5S,6R)-3,4,5-trihydroxy-6-(hydroxymethyl)oxan-2-yl]oxy}methyl)oxane-3,4,5-triol

> <IUPAC_TRADITIONAL_NAME>
(2S,3R,4S,5S,6R)-2-{[(2S)-2-[(1R,3R,5S,7R,10R,11R,14S,15R,16R)-5-{[(2R,3R,4S,5S,6R)-4,5-dihydroxy-6-(hydroxymethyl)-3-{[(2S,3R,4S,5S,6R)-3,4,5-trihydroxy-6-(hydroxymethyl)oxan-2-yl]oxy}oxan-2-yl]oxy}-16-hydroxy-3,6,6,10,11-pentamethyltetracyclo[8.7.0.0^{2,7}.0^{11,15}]heptadecan-14-yl]-6-methylhept-5-en-2-yl]oxy}-6-({[(2R,3R,4S,5S,6R)-3,4,5-trihydroxy-6-(hydroxymethyl)oxan-2-yl]oxy}methyl)oxane-3,4,5-triol

> <INCHI_IDENTIFIER>
InChI=1S/C54H92O23/c1-22(2)10-9-13-54(8,77-49-45(69)41(65)38(62)31(74-49)21-70-47-43(67)39(63)35(59)28(18-55)71-47)25-12-15-53(7)34(25)27(58)17-26-33-23(3)16-32(51(4,5)24(33)11-14-52(26,53)6)75-50-46(42(66)37(61)30(20-57)73-50)76-48-44(68)40(64)36(60)29(19-56)72-48/h10,23-50,55-69H,9,11-21H2,1-8H3/t23-,24-,25+,26-,27-,28-,29-,30-,31-,32+,33?,34+,35-,36-,37-,38-,39+,40+,41+,42+,43-,44-,45-,46-,47-,48+,49+,50+,52-,53-,54+/m1/s1

> <INCHI_KEY>
InChIKey=JRZQHNRYHFRTFZ-MHMDWUMYSA-N

> <SMILES>
C[C@@H]1C[C@H](O[C@@H]2O[C@H](CO)[C@@H](O)[C@H](O)[C@H]2O[C@@H]2O[C@H](CO)[C@@H](O)[C@H](O)[C@H]2O)C(C)(C)[C@@H]2CC[C@]3(C)[C@H](C[C@@H](O)[C@@H]4[C@H](CC[C@@]34C)[C@](C)(CCC=C(C)C)O[C@@H]3O[C@H](CO[C@@H]4O[C@H](CO)[C@@H](O)[C@H](O)[C@H]4O)[C@@H](O)[C@H](O)[C@H]3O)C12

> <JCHEM_ACCEPTOR_COUNT>
23

> <JCHEM_DONOR_COUNT>
15

> <JCHEM_ACIDIC_PKA>
11.75

> <JCHEM_BASIC_PKA>
-3.6

> <JCHEM_PHYSIOLOGICAL_CHARGE>
0

> <ALOGPS_LOGP>
-0.34

> <JCHEM_LOGP>
-1.6

> <ALOGPS_LOGS>
-3

> <JCHEM_POLARIZABILITY>
119.29

> <JCHEM_POLAR_SURFACE_AREA>
377.29

> <JCHEM_REFRACTIVITY>
266.96

> <JCHEM_ROTATABLE_BOND_COUNT>
16

> <ALOGPS_SOLUBILITY>
1.18e+00 g/l __ 

$$$$
