26C
  Mrv0541 02241213052D          

 17 18  0  0  0  0            999 V2000
    0.6491    2.8772    0.0000 O   0  0  0  0  0  0  0  0  0  0  0  0
   -0.0653    2.4647    0.0000 C   0  0  0  0  0  0  0  0  0  0  0  0
   -0.7798    2.8772    0.0000 O   0  0  0  0  0  0  0  0  0  0  0  0
   -0.0653    1.6397    0.0000 C   0  0  0  0  0  0  0  0  0  0  0  0
    0.6491    1.2272    0.0000 C   0  0  0  0  0  0  0  0  0  0  0  0
   -0.7798    1.2272    0.0000 C   0  0  0  0  0  0  0  0  0  0  0  0
   -0.7798    0.4022    0.0000 C   0  0  0  0  0  0  0  0  0  0  0  0
   -0.0653   -0.0103    0.0000 C   0  0  0  0  0  0  0  0  0  0  0  0
    0.6491    0.4022    0.0000 C   0  0  0  0  0  0  0  0  0  0  0  0
   -0.0653   -0.8353    0.0000 C   0  0  0  0  0  0  0  0  0  0  0  0
    0.6491   -1.2478    0.0000 C   0  0  0  0  0  0  0  0  0  0  0  0
    1.3636   -0.8353    0.0000 F   0  0  0  0  0  0  0  0  0  0  0  0
    0.6491   -2.0728    0.0000 C   0  0  0  0  0  0  0  0  0  0  0  0
   -0.0653   -2.4853    0.0000 C   0  0  0  0  0  0  0  0  0  0  0  0
   -0.7798   -2.0728    0.0000 C   0  0  0  0  0  0  0  0  0  0  0  0
   -0.7798   -1.2478    0.0000 C   0  0  0  0  0  0  0  0  0  0  0  0
   -1.4943   -0.8353    0.0000 F   0  0  0  0  0  0  0  0  0  0  0  0
  1  2  2  0  0  0  0
  2  3  1  0  0  0  0
  2  4  1  0  0  0  0
  4  5  2  0  0  0  0
  4  6  1  0  0  0  0
  5  9  1  0  0  0  0
  6  7  2  0  0  0  0
  7  8  1  0  0  0  0
  8  9  2  0  0  0  0
  8 10  1  0  0  0  0
 10 11  1  0  0  0  0
 10 16  2  0  0  0  0
 11 12  1  0  0  0  0
 11 13  2  0  0  0  0
 13 14  1  0  0  0  0
 14 15  2  0  0  0  0
 15 16  1  0  0  0  0
 16 17  1  0  0  0  0
M  END
> <DRUGBANK_ID>
DB06935

> <DRUG_GROUPS>
experimental

> <GENERIC_NAME>
2',6'-DIFLUOROBIPHENYL-4-CARBOXYLIC ACID

> <CHEMICAL_FORMULA>
C13H8F2O2

> <MOLECULAR_WEIGHT>
234.1982

> <EXACT_MASS>
234.04923591

> <IUPAC_NAME>
4-(2,6-difluorophenyl)benzoic acid

> <IUPAC_TRADITIONAL_NAME>
4-(2,6-difluorophenyl)benzoic acid

> <INCHI_IDENTIFIER>
InChI=1S/C13H8F2O2/c14-10-2-1-3-11(15)12(10)8-4-6-9(7-5-8)13(16)17/h1-7H,(H,16,17)

> <INCHI_KEY>
InChIKey=CWWIIKLXUPZDOG-UHFFFAOYSA-N

> <SMILES>
OC(=O)C1=CC=C(C=C1)C1=C(F)C=CC=C1F

> <JCHEM_ACCEPTOR_COUNT>
2

> <JCHEM_DONOR_COUNT>
1

> <JCHEM_ACIDIC_PKA>
3.92

> <JCHEM_PHYSIOLOGICAL_CHARGE>
-1

> <ALOGPS_LOGP>
3.41

> <JCHEM_LOGP>
3.56

> <ALOGPS_LOGS>
-3.9

> <JCHEM_POLARIZABILITY>
21.49

> <JCHEM_POLAR_SURFACE_AREA>
37.3

> <JCHEM_REFRACTIVITY>
58.88

> <JCHEM_ROTATABLE_BOND_COUNT>
2

> <ALOGPS_SOLUBILITY>
2.88e-02 g/l __ 

$$$$
