HBY
  Mrv0541 02241213432D          

 23 24  0  0  0  0            999 V2000
   -0.7727   -0.7122    0.0000 C   0  0  2  0  0  0  0  0  0  0  0  0
   -0.7727   -1.5372    0.0000 C   0  0  0  0  0  0  0  0  0  0  0  0
    0.6563   -1.5372    0.0000 C   0  0  0  0  0  0  0  0  0  0  0  0
    0.6563   -0.7122    0.0000 C   0  0  0  0  0  0  0  0  0  0  0  0
    1.3707   -0.2997    0.0000 C   0  0  0  0  0  0  0  0  0  0  0  0
    2.0852   -0.7122    0.0000 C   0  0  0  0  0  0  0  0  0  0  0  0
    2.0852   -1.5372    0.0000 C   0  0  0  0  0  0  0  0  0  0  0  0
    1.3707   -1.9497    0.0000 C   0  0  0  0  0  0  0  0  0  0  0  0
   -0.0582    0.5253    0.0000 C   0  0  0  0  0  0  0  0  0  0  0  0
   -0.7727    1.7628    0.0000 C   0  0  0  0  0  0  0  0  0  0  0  0
   -1.4872    2.1753    0.0000 C   0  0  0  0  0  0  0  0  0  0  0  0
   -0.0582    2.1753    0.0000 C   0  0  0  0  0  0  0  0  0  0  0  0
   -1.4872   -0.2997    0.0000 C   0  0  0  0  0  0  0  0  0  0  0  0
   -2.9161   -0.2997    0.0000 C   0  0  0  0  0  0  0  0  0  0  0  0
    2.7997    0.5253    0.0000 C   0  0  0  0  0  0  0  0  0  0  0  0
   -0.0582   -0.2997    0.0000 N   0  0  0  0  0  0  0  0  0  0  0  0
   -0.0582   -1.9497    0.0000 N   0  0  0  0  0  0  0  0  0  0  0  0
    0.6563    0.9378    0.0000 O   0  0  0  0  0  0  0  0  0  0  0  0
   -0.7727    0.9378    0.0000 O   0  0  0  0  0  0  0  0  0  0  0  0
    2.7997   -0.2997    0.0000 O   0  0  0  0  0  0  0  0  0  0  0  0
   -1.4872   -1.9497    0.0000 S   0  0  0  0  0  0  0  0  0  0  0  0
   -2.2016   -0.7122    0.0000 S   0  0  0  0  0  0  0  0  0  0  0  0
   -1.2784   -1.0041    0.0000 H   0  0  0  0  0  0  0  0  0  0  0  0
  1  2  1  0  0  0  0
  1 13  1  6  0  0  0
  1 16  1  0  0  0  0
  1 23  1  1  0  0  0
  2 17  1  0  0  0  0
  2 21  2  0  0  0  0
  3  4  2  0  0  0  0
  3  8  1  0  0  0  0
  3 17  1  0  0  0  0
  4  5  1  0  0  0  0
  4 16  1  0  0  0  0
  5  6  2  0  0  0  0
  6  7  1  0  0  0  0
  6 20  1  0  0  0  0
  7  8  2  0  0  0  0
  9 16  1  0  0  0  0
  9 18  2  0  0  0  0
  9 19  1  0  0  0  0
 10 11  1  0  0  0  0
 10 12  1  0  0  0  0
 10 19  1  0  0  0  0
 13 22  1  0  0  0  0
 14 22  1  0  0  0  0
 15 20  1  0  0  0  0
M  END
> <DRUGBANK_ID>
DB07885

> <DRUG_GROUPS>
experimental

> <GENERIC_NAME>
(S)-4-ISOPROPOXYCARBONYL-6-METHOXY-3-METHYLTHIOMETHYL-3,4-DIHYDROQUINOXALIN-2(1H)-THIONE

> <CHEMICAL_FORMULA>
C15H20N2O3S2

> <MOLECULAR_WEIGHT>
340.461

> <EXACT_MASS>
340.091533896

> <IUPAC_NAME>
propan-2-yl (2S)-7-methoxy-2-[(methylsulfanyl)methyl]-3-sulfanylidene-1,2,3,4-tetrahydroquinoxaline-1-carboxylate

> <IUPAC_TRADITIONAL_NAME>
isopropyl (2S)-7-methoxy-2-[(methylsulfanyl)methyl]-3-sulfanylidene-2,4-dihydroquinoxaline-1-carboxylate

> <INCHI_IDENTIFIER>
InChI=1S/C15H20N2O3S2/c1-9(2)20-15(18)17-12-7-10(19-3)5-6-11(12)16-14(21)13(17)8-22-4/h5-7,9,13H,8H2,1-4H3,(H,16,21)/t13-/m0/s1

> <INCHI_KEY>
InChIKey=GWKIPRVERALPRD-ZDUSSCGKSA-N

> <SMILES>
[H][C@@]1(CSC)N(C(=O)OC(C)C)C2=C(NC1=S)C=CC(OC)=C2

> <JCHEM_ACCEPTOR_COUNT>
3

> <JCHEM_DONOR_COUNT>
1

> <JCHEM_ACIDIC_PKA>
8.16

> <JCHEM_BASIC_PKA>
-2.6

> <JCHEM_PHYSIOLOGICAL_CHARGE>
0

> <ALOGPS_LOGP>
2.26

> <JCHEM_LOGP>
3.14

> <ALOGPS_LOGS>
-4.5

> <JCHEM_POLARIZABILITY>
35.61

> <JCHEM_POLAR_SURFACE_AREA>
50.8

> <JCHEM_REFRACTIVITY>
94.46

> <JCHEM_ROTATABLE_BOND_COUNT>
5

> <ALOGPS_SOLUBILITY>
1.01e-02 g/l __ 

$$$$
