INK
  Mrv0541 02241213472D          

 17 17  0  0  0  0            999 V2000
   -2.1279    0.0737    0.0000 P    0  0  2  0  0  0  0  0  0  0  0  0
   -2.8423   -0.3388    0.0000 Cl   0  0  0  0  0  0  0  0  0  0  0  0
   -1.7153   -0.6408    0.0000 C    0  0  0  0  0  0  0  0  0  0  0  0
   -2.5404    0.7882    0.0000 O    0  0  0  0  0  0  0  0  0  0  0  0
   -1.4133    0.4862    0.0000 O    0  0  0  0  0  0  0  0  0  0  0  0
   -0.6988    0.0737    0.0000 C    0  0  2  0  0  0  0  0  0  0  0  0
   -0.6988   -0.7514    0.0000 C    0  0  0  0  0  0  0  0  0  0  0  0
    0.0157   -1.1639    0.0000 C    0  0  0  0  0  0  0  0  0  0  0  0
    0.0157    0.4862    0.0000 C    0  0  0  0  0  0  0  0  0  0  0  0
    0.7303    0.0737    0.0000 O    0  0  0  0  0  0  0  0  0  0  0  0
    2.1593    1.7238    0.0000 C    0  0  0  0  0  0  0  0  0  0  0  0
    2.8738    1.3113    0.0000 C    0  0  0  0  0  0  0  0  0  0  0  0
    2.8738    0.4862    0.0000 C    0  0  0  0  0  0  0  0  0  0  0  0
    2.1593    0.0737    0.0000 C    0  0  0  0  0  0  0  0  0  0  0  0
    1.4448    0.4862    0.0000 C    0  0  0  0  0  0  0  0  0  0  0  0
    1.4448    1.3113    0.0000 C    0  0  0  0  0  0  0  0  0  0  0  0
   -1.0742   -0.3737    0.0000 H    0  0  0  0  0  0  0  0  0  0  0  0
  1  2  1  6  0  0  0
  1  3  1  1  0  0  0
  1  4  2  0  0  0  0
  1  5  1  0  0  0  0
  6  5  1  1  0  0  0
  6  7  1  0  0  0  0
  6  9  1  0  0  0  0
  6 17  1  6  0  0  0
  7  8  1  0  0  0  0
  9 10  1  0  0  0  0
 10 15  1  0  0  0  0
 11 12  2  0  0  0  0
 11 16  1  0  0  0  0
 12 13  1  0  0  0  0
 13 14  2  0  0  0  0
 14 15  1  0  0  0  0
 15 16  2  0  0  0  0
M  END
> <DRUGBANK_ID>
DB07990

> <DRUG_GROUPS>
experimental

> <GENERIC_NAME>
(RP,SP)-O-(2R)-(1-PHENOXYBUT-2-YL)-METHYLPHOSPHONIC ACID CHLORIDE

> <CHEMICAL_FORMULA>
C11H16ClO3P

> <MOLECULAR_WEIGHT>
262.67

> <EXACT_MASS>
262.052558597

> <IUPAC_NAME>
(R)-((2R)-1-phenoxybutan-2-yl chloro(methyl)phosphinate)

> <IUPAC_TRADITIONAL_NAME>
(R)-((2R)-1-phenoxybutan-2-yl chloro(methyl)phosphinate)

> <INCHI_IDENTIFIER>
InChI=1S/C11H16ClO3P/c1-3-10(15-16(2,12)13)9-14-11-7-5-4-6-8-11/h4-8,10H,3,9H2,1-2H3/t10-,16-/m1/s1

> <INCHI_KEY>
InChIKey=YEIXDWIEYXZUBR-QLJPJBMISA-N

> <SMILES>
[H][C@@](CC)(COC1=CC=CC=C1)O[P@](C)(Cl)=O

> <JCHEM_ACCEPTOR_COUNT>
2

> <JCHEM_DONOR_COUNT>
0

> <JCHEM_BASIC_PKA>
-4.9

> <JCHEM_PHYSIOLOGICAL_CHARGE>
0

> <ALOGPS_LOGP>
2.24

> <JCHEM_LOGP>
2.82

> <ALOGPS_LOGS>
-2.5

> <JCHEM_POLARIZABILITY>
25.61

> <JCHEM_POLAR_SURFACE_AREA>
35.53

> <JCHEM_REFRACTIVITY>
64.73

> <JCHEM_ROTATABLE_BOND_COUNT>
6

> <ALOGPS_SOLUBILITY>
8.22e-01 g/l __ 

$$$$
