7X6
  Mrv0541 02241213182D          

 29 32  0  0  0  0            999 V2000
    5.8100    2.3118    0.0000 N    0  0  0  0  0  0  0  0  0  0  0  0
    5.8100    3.1368    0.0000 C    0  0  0  0  0  0  0  0  0  0  0  0
    5.0955    3.5493    0.0000 N    0  0  0  0  0  0  0  0  0  0  0  0
    5.0955    4.3743    0.0000 C    0  0  0  0  0  0  0  0  0  0  0  0
    5.8100    4.7868    0.0000 C    0  0  0  0  0  0  0  0  0  0  0  0
    6.5245    4.3743    0.0000 C    0  0  0  0  0  0  0  0  0  0  0  0
    7.2390    4.7868    0.0000 N    0  0  0  0  0  0  0  0  0  0  0  0
    7.2390    5.6118    0.0000 C    0  0  0  0  0  0  0  0  0  0  0  0
    6.5245    6.0243    0.0000 C    0  0  0  0  0  0  0  0  0  0  0  0
    5.7399    5.7694    0.0000 O    0  0  0  0  0  0  0  0  0  0  0  0
    5.2549    6.4368    0.0000 C    0  0  0  0  0  0  0  0  0  0  0  0
    5.7399    7.1043    0.0000 O    0  0  0  0  0  0  0  0  0  0  0  0
    6.5245    6.8493    0.0000 C    0  0  0  0  0  0  0  0  0  0  0  0
    7.2390    7.2618    0.0000 C    0  0  0  0  0  0  0  0  0  0  0  0
    7.9534    6.8493    0.0000 C    0  0  0  0  0  0  0  0  0  0  0  0
    7.9534    6.0243    0.0000 C    0  0  0  0  0  0  0  0  0  0  0  0
    8.6679    5.6118    0.0000 Cl   0  0  0  0  0  0  0  0  0  0  0  0
    6.5245    3.5493    0.0000 N    0  0  0  0  0  0  0  0  0  0  0  0
    5.8100   -0.9882    0.0000 C    0  0  0  0  0  0  0  0  0  0  0  0
    5.0955   -0.5757    0.0000 S    0  0  0  0  0  0  0  0  0  0  0  0
    4.6830   -1.2901    0.0000 O    0  0  0  0  0  0  0  0  0  0  0  0
    5.5080    0.1388    0.0000 O    0  0  0  0  0  0  0  0  0  0  0  0
    4.3811   -0.1632    0.0000 N    0  0  0  0  0  0  0  0  0  0  0  0
    4.3811    0.6618    0.0000 C    0  0  0  0  0  0  0  0  0  0  0  0
    3.6666    1.0743    0.0000 C    0  0  0  0  0  0  0  0  0  0  0  0
    3.6666    1.8993    0.0000 C    0  0  0  0  0  0  0  0  0  0  0  0
    4.3811    2.3118    0.0000 C    0  0  0  0  0  0  0  0  0  0  0  0
    5.0955    1.8993    0.0000 C    0  0  0  0  0  0  0  0  0  0  0  0
    5.0955    1.0743    0.0000 C    0  0  0  0  0  0  0  0  0  0  0  0
  1  2  1  0  0  0  0
  1 28  1  0  0  0  0
  2  3  1  0  0  0  0
  2 18  2  0  0  0  0
  3  4  2  0  0  0  0
  4  5  1  0  0  0  0
  5  6  2  0  0  0  0
  6  7  1  0  0  0  0
  6 18  1  0  0  0  0
  7  8  1  0  0  0  0
  8  9  1  0  0  0  0
  8 16  2  0  0  0  0
  9 10  1  0  0  0  0
  9 13  2  0  0  0  0
 10 11  1  0  0  0  0
 11 12  1  0  0  0  0
 12 13  1  0  0  0  0
 13 14  1  0  0  0  0
 14 15  2  0  0  0  0
 15 16  1  0  0  0  0
 16 17  1  0  0  0  0
 19 20  1  0  0  0  0
 20 21  2  0  0  0  0
 20 22  2  0  0  0  0
 20 23  1  0  0  0  0
 23 24  1  0  0  0  0
 24 25  1  0  0  0  0
 24 29  2  0  0  0  0
 25 26  2  0  0  0  0
 26 27  1  0  0  0  0
 27 28  2  0  0  0  0
 28 29  1  0  0  0  0
M  END
> <DRUGBANK_ID>
DB07254

> <DRUG_GROUPS>
experimental

> <GENERIC_NAME>
N-[3-[[4-[(5-CHLORO-1,3-BENZODIOXOL-4-YL)AMINO]PYRIMIDIN-2-YL]AMINO]PHENYL]METHANESULFONAMIDE

> <CHEMICAL_FORMULA>
C18H16ClN5O4S

> <MOLECULAR_WEIGHT>
433.869

> <EXACT_MASS>
433.061152422

> <IUPAC_NAME>
N-[3-({4-[(5-chloro-2H-1,3-benzodioxol-4-yl)amino]pyrimidin-2-yl}amino)phenyl]methanesulfonamide

> <IUPAC_TRADITIONAL_NAME>
N-[3-({4-[(5-chloro-2H-1,3-benzodioxol-4-yl)amino]pyrimidin-2-yl}amino)phenyl]methanesulfonamide

> <INCHI_IDENTIFIER>
InChI=1S/C18H16ClN5O4S/c1-29(25,26)24-12-4-2-3-11(9-12)21-18-20-8-7-15(23-18)22-16-13(19)5-6-14-17(16)28-10-27-14/h2-9,24H,10H2,1H3,(H2,20,21,22,23)

> <INCHI_KEY>
InChIKey=KQGTYXRWSIBDOZ-UHFFFAOYSA-N

> <SMILES>
CS(=O)(=O)NC1=CC(NC2=NC(NC3=C(Cl)C=CC4=C3OCO4)=CC=N2)=CC=C1

> <JCHEM_ACCEPTOR_COUNT>
8

> <JCHEM_DONOR_COUNT>
3

> <JCHEM_ACIDIC_PKA>
9.9

> <JCHEM_BASIC_PKA>
5.03

> <JCHEM_PHYSIOLOGICAL_CHARGE>
0

> <ALOGPS_LOGP>
3.75

> <JCHEM_LOGP>
2.8

> <ALOGPS_LOGS>
-4

> <JCHEM_POLARIZABILITY>
40.89

> <JCHEM_POLAR_SURFACE_AREA>
114.47

> <JCHEM_REFRACTIVITY>
107.21

> <JCHEM_ROTATABLE_BOND_COUNT>
5

> <ALOGPS_SOLUBILITY>
4.02e-02 g/l __ 

$$$$
