4BB
  Mrv0541 02241213122D          

 25 26  0  0  0  0            999 V2000
    1.2833    3.6870    0.0000 C    0  0  0  0  0  0  0  0  0  0  0  0
    1.2833    2.8620    0.0000 C    0  0  0  0  0  0  0  0  0  0  0  0
    0.4583    2.8620    0.0000 C    0  0  0  0  0  0  0  0  0  0  0  0
    2.1083    2.8620    0.0000 C    0  0  0  0  0  0  0  0  0  0  0  0
    1.2833    2.0370    0.0000 C    0  0  0  0  0  0  0  0  0  0  0  0
    1.9978    1.6245    0.0000 C    0  0  0  0  0  0  0  0  0  0  0  0
    1.9978    0.7995    0.0000 C    0  0  0  0  0  0  0  0  0  0  0  0
    0.5688    1.6245    0.0000 C    0  0  0  0  0  0  0  0  0  0  0  0
    0.5688    0.7995    0.0000 C    0  0  0  0  0  0  0  0  0  0  0  0
    1.2833    0.3870    0.0000 C    0  0  0  0  0  0  0  0  0  0  0  0
    1.2833   -0.4380    0.0000 C    0  0  0  0  0  0  0  0  0  0  0  0
    0.5688   -0.8505    0.0000 O    0  0  0  0  0  0  0  0  0  0  0  0
    1.9978   -0.8505    0.0000 N    0  0  0  0  0  0  0  0  0  0  0  0
    1.9978   -1.6755    0.0000 N    0  0  0  0  0  0  0  0  0  0  0  0
    2.7123   -2.0880    0.0000 C    0  0  0  0  0  0  0  0  0  0  0  0
    2.7123   -2.9130    0.0000 C    0  0  0  0  0  0  0  0  0  0  0  0
    3.4267   -3.3255    0.0000 C    0  0  0  0  0  0  0  0  0  0  0  0
    3.4267   -4.1505    0.0000 C    0  0  0  0  0  0  0  0  0  0  0  0
    4.1412   -4.5630    0.0000 Br   0  0  0  0  0  0  0  0  0  0  0  0
    2.7123   -4.5630    0.0000 C    0  0  0  0  0  0  0  0  0  0  0  0
    2.7123   -5.3880    0.0000 O    0  0  0  0  0  0  0  0  0  0  0  0
    1.9978   -4.1505    0.0000 C    0  0  0  0  0  0  0  0  0  0  0  0
    1.2833   -4.5630    0.0000 Br   0  0  0  0  0  0  0  0  0  0  0  0
    1.9978   -3.3255    0.0000 C    0  0  0  0  0  0  0  0  0  0  0  0
    1.2833   -2.9130    0.0000 O    0  0  0  0  0  0  0  0  0  0  0  0
  1  2  1  0  0  0  0
  2  3  1  0  0  0  0
  2  4  1  0  0  0  0
  2  5  1  0  0  0  0
  5  6  2  0  0  0  0
  5  8  1  0  0  0  0
  6  7  1  0  0  0  0
  7 10  2  0  0  0  0
  8  9  2  0  0  0  0
  9 10  1  0  0  0  0
 10 11  1  0  0  0  0
 11 12  2  0  0  0  0
 11 13  1  0  0  0  0
 13 14  1  0  0  0  0
 14 15  2  0  0  0  0
 15 16  1  0  0  0  0
 16 17  2  0  0  0  0
 16 24  1  0  0  0  0
 17 18  1  0  0  0  0
 18 19  1  0  0  0  0
 18 20  2  0  0  0  0
 20 21  1  0  0  0  0
 20 22  1  0  0  0  0
 22 23  1  0  0  0  0
 22 24  2  0  0  0  0
 24 25  1  0  0  0  0
M  END
> <DRUGBANK_ID>
DB07097

> <DRUG_GROUPS>
experimental

> <GENERIC_NAME>
4-tert-butyl-N'-[(1E)-(3,5-dibromo-2,4-dihydroxyphenyl)methylidene]benzohydrazide

> <CHEMICAL_FORMULA>
C18H18Br2N2O3

> <MOLECULAR_WEIGHT>
470.155

> <EXACT_MASS>
467.968417746

> <IUPAC_NAME>
4-tert-butyl-N'-[(1E)-(3,5-dibromo-2,4-dihydroxyphenyl)methylidene]benzohydrazide

> <IUPAC_TRADITIONAL_NAME>
4-tert-butyl-N'-[(1E)-(3,5-dibromo-2,4-dihydroxyphenyl)methylidene]benzohydrazide

> <INCHI_IDENTIFIER>
InChI=1S/C18H18Br2N2O3/c1-18(2,3)12-6-4-10(5-7-12)17(25)22-21-9-11-8-13(19)16(24)14(20)15(11)23/h4-9,23-24H,1-3H3,(H,22,25)/b21-9+

> <INCHI_KEY>
InChIKey=FVJUELRQTOWYRY-ZVBGSRNCSA-N

> <SMILES>
CC(C)(C)C1=CC=C(C=C1)C(=O)N\N=C\C1=CC(Br)=C(O)C(Br)=C1O

> <JCHEM_ACCEPTOR_COUNT>
4

> <JCHEM_DONOR_COUNT>
3

> <JCHEM_ACIDIC_PKA>
6.44

> <JCHEM_BASIC_PKA>
0.38

> <JCHEM_PHYSIOLOGICAL_CHARGE>
-1

> <ALOGPS_LOGP>
5.7

> <JCHEM_LOGP>
5.44

> <ALOGPS_LOGS>
-5.3

> <JCHEM_POLARIZABILITY>
41.48

> <JCHEM_POLAR_SURFACE_AREA>
81.92

> <JCHEM_REFRACTIVITY>
106.11

> <JCHEM_ROTATABLE_BOND_COUNT>
4

> <ALOGPS_SOLUBILITY>
2.28e-03 g/l __ 

$$$$
