FLN
  Mrv0541 02241213382D          

 17 19  0  0  0  0            999 V2000
    0.4953   -0.3023    0.0000 O   0  0  0  0  0  0  0  0  0  0  0  0
    1.2098    0.1102    0.0000 C   0  0  0  0  0  0  0  0  0  0  0  0
    1.2098    0.9352    0.0000 C   0  0  0  0  0  0  0  0  0  0  0  0
    0.4953    1.3477    0.0000 C   0  0  0  0  0  0  0  0  0  0  0  0
   -0.2192    0.9352    0.0000 C   0  0  0  0  0  0  0  0  0  0  0  0
   -0.2192    0.1102    0.0000 C   0  0  0  0  0  0  0  0  0  0  0  0
   -0.9337   -0.3023    0.0000 C   0  0  0  0  0  0  0  0  0  0  0  0
   -0.9337   -1.1273    0.0000 C   0  0  0  0  0  0  0  0  0  0  0  0
   -1.6481   -1.5398    0.0000 C   0  0  0  0  0  0  0  0  0  0  0  0
   -2.3626   -1.1273    0.0000 C   0  0  0  0  0  0  0  0  0  0  0  0
   -2.3626   -0.3023    0.0000 C   0  0  0  0  0  0  0  0  0  0  0  0
   -1.6481    0.1102    0.0000 C   0  0  0  0  0  0  0  0  0  0  0  0
    0.4953    2.1727    0.0000 O   0  0  0  0  0  0  0  0  0  0  0  0
    1.9242    1.3477    0.0000 C   0  0  0  0  0  0  0  0  0  0  0  0
    2.6387    0.9352    0.0000 C   0  0  0  0  0  0  0  0  0  0  0  0
    2.6387    0.1102    0.0000 C   0  0  0  0  0  0  0  0  0  0  0  0
    1.9242   -0.3023    0.0000 C   0  0  0  0  0  0  0  0  0  0  0  0
  1  2  1  0  0  0  0
  1  6  1  0  0  0  0
  2  3  1  0  0  0  0
  2 17  2  0  0  0  0
  3  4  1  0  0  0  0
  3 14  2  0  0  0  0
  4  5  1  0  0  0  0
  4 13  2  0  0  0  0
  5  6  2  0  0  0  0
  6  7  1  0  0  0  0
  7  8  2  0  0  0  0
  7 12  1  0  0  0  0
  8  9  1  0  0  0  0
  9 10  2  0  0  0  0
 10 11  1  0  0  0  0
 11 12  2  0  0  0  0
 14 15  1  0  0  0  0
 15 16  2  0  0  0  0
 16 17  1  0  0  0  0
M  END
> <DRUGBANK_ID>
DB07776

> <DRUG_GROUPS>
experimental

> <GENERIC_NAME>
2-PHENYL-4H-CHROMEN-4-ONE

> <CHEMICAL_FORMULA>
C15H10O2

> <MOLECULAR_WEIGHT>
222.2387

> <EXACT_MASS>
222.068079564

> <IUPAC_NAME>
2-phenyl-4H-chromen-4-one

> <IUPAC_TRADITIONAL_NAME>
flavone

> <INCHI_IDENTIFIER>
InChI=1S/C15H10O2/c16-13-10-15(11-6-2-1-3-7-11)17-14-9-5-4-8-12(13)14/h1-10H

> <INCHI_KEY>
InChIKey=VHBFFQKBGNRLFZ-UHFFFAOYSA-N

> <SMILES>
O=C1C=C(OC2=CC=CC=C12)C1=CC=CC=C1

> <JCHEM_ACCEPTOR_COUNT>
2

> <JCHEM_DONOR_COUNT>
0

> <JCHEM_ACIDIC_PKA>
15.63

> <JCHEM_BASIC_PKA>
-5.4

> <JCHEM_PHYSIOLOGICAL_CHARGE>
0

> <ALOGPS_LOGP>
3.54

> <JCHEM_LOGP>
2.97

> <ALOGPS_LOGS>
-4.4

> <JCHEM_POLARIZABILITY>
23.79

> <JCHEM_POLAR_SURFACE_AREA>
26.3

> <JCHEM_REFRACTIVITY>
66.97

> <JCHEM_ROTATABLE_BOND_COUNT>
1

> <ALOGPS_SOLUBILITY>
8.19e-03 g/l __ 

$$$$
