G14
  Mrv0541 02241213392D          

 14 15  0  0  0  0            999 V2000
    0.9987    2.6179    0.0000 O   0  0  0  0  0  0  0  0  0  0  0  0
    0.2842    2.2054    0.0000 C   0  0  0  0  0  0  0  0  0  0  0  0
   -0.4303    2.6179    0.0000 O   0  0  0  0  0  0  0  0  0  0  0  0
    0.2842    1.3804    0.0000 C   0  0  0  0  0  0  0  0  0  0  0  0
    0.9517    0.8955    0.0000 C   0  0  0  0  0  0  0  0  0  0  0  0
    0.6967    0.1109    0.0000 N   0  0  0  0  0  0  0  0  0  0  0  0
   -0.1283    0.1109    0.0000 C   0  0  0  0  0  0  0  0  0  0  0  0
   -0.3832    0.8955    0.0000 N   0  0  0  0  0  0  0  0  0  0  0  0
   -0.6132   -0.5566    0.0000 C   0  0  0  0  0  0  0  0  0  0  0  0
   -1.4337   -0.4703    0.0000 C   0  0  0  0  0  0  0  0  0  0  0  0
   -1.9186   -1.1378    0.0000 C   0  0  0  0  0  0  0  0  0  0  0  0
   -1.5831   -1.8914    0.0000 C   0  0  0  0  0  0  0  0  0  0  0  0
   -0.7626   -1.9777    0.0000 C   0  0  0  0  0  0  0  0  0  0  0  0
   -0.2776   -1.3102    0.0000 C   0  0  0  0  0  0  0  0  0  0  0  0
  1  2  1  0  0  0  0
  2  4  1  0  0  0  0
  3  2  2  0  0  0  0
  4  5  2  0  0  0  0
  4  8  1  0  0  0  0
  5  6  1  0  0  0  0
  6  7  1  0  0  0  0
  7  9  1  0  0  0  0
  8  7  2  0  0  0  0
  9 14  2  0  0  0  0
  9 10  1  0  0  0  0
 10 11  2  0  0  0  0
 11 12  1  0  0  0  0
 13 12  2  0  0  0  0
 14 13  1  0  0  0  0
M  END
> <DRUGBANK_ID>
DB07803

> <DRUG_GROUPS>
experimental

> <GENERIC_NAME>
2-phenyl-1H-imidazole-4-carboxylic acid

> <CHEMICAL_FORMULA>
C10H8N2O2

> <MOLECULAR_WEIGHT>
188.1827

> <EXACT_MASS>
188.05857751

> <IUPAC_NAME>
2-phenyl-1H-imidazole-4-carboxylic acid

> <IUPAC_TRADITIONAL_NAME>
2-phenyl-1H-imidazole-4-carboxylic acid

> <INCHI_IDENTIFIER>
InChI=1S/C10H8N2O2/c13-10(14)8-6-11-9(12-8)7-4-2-1-3-5-7/h1-6H,(H,11,12)(H,13,14)

> <INCHI_KEY>
InChIKey=XCAXKZJNJCKTQH-UHFFFAOYSA-N

> <SMILES>
OC(=O)C1=CNC(=N1)C1=CC=CC=C1

> <JCHEM_ACCEPTOR_COUNT>
3

> <JCHEM_DONOR_COUNT>
2

> <JCHEM_ACIDIC_PKA>
1.27

> <JCHEM_BASIC_PKA>
5.47

> <JCHEM_PHYSIOLOGICAL_CHARGE>
-1

> <ALOGPS_LOGP>
1.83

> <JCHEM_LOGP>
0.27

> <ALOGPS_LOGS>
-1.8

> <JCHEM_POLARIZABILITY>
19.06

> <JCHEM_POLAR_SURFACE_AREA>
65.98

> <JCHEM_REFRACTIVITY>
61

> <JCHEM_ROTATABLE_BOND_COUNT>
2

> <ALOGPS_SOLUBILITY>
3.17e+00 g/l __ 

$$$$
