582
  Mrv0541 02241213142D          

 17 19  0  0  0  0            999 V2000
    1.8795   -0.6782    0.0000 C   0  0  0  0  0  0  0  0  0  0  0  0
    1.4449    0.0231    0.0000 C   0  0  0  0  0  0  0  0  0  0  0  0
    0.6203   -0.0027    0.0000 C   0  0  0  0  0  0  0  0  0  0  0  0
    0.2303   -0.7297    0.0000 C   0  0  0  0  0  0  0  0  0  0  0  0
    0.6649   -1.4309    0.0000 C   0  0  0  0  0  0  0  0  0  0  0  0
    1.4895   -1.4052    0.0000 C   0  0  0  0  0  0  0  0  0  0  0  0
    0.1856    0.6985    0.0000 N   0  0  0  0  0  0  0  0  0  0  0  0
   -0.6390    0.6728    0.0000 C   0  0  0  0  0  0  0  0  0  0  0  0
   -1.0289   -0.0542    0.0000 C   0  0  0  0  0  0  0  0  0  0  0  0
   -0.5943   -0.7555    0.0000 C   0  0  0  0  0  0  0  0  0  0  0  0
   -1.0736    1.3740    0.0000 O   0  0  0  0  0  0  0  0  0  0  0  0
    0.5756    1.4255    0.0000 C   0  0  0  0  0  0  0  0  0  0  0  0
   -1.1269   -1.3855    0.0000 N   0  0  0  0  0  0  0  0  0  0  0  0
   -1.8302   -0.2509    0.0000 C   0  0  0  0  0  0  0  0  0  0  0  0
   -2.4602    0.2818    0.0000 C   0  0  0  0  0  0  0  0  0  0  0  0
   -1.8907   -1.0736    0.0000 N   0  0  0  0  0  0  0  0  0  0  0  0
    0.1410    2.1268    0.0000 C   0  0  0  0  0  0  0  0  0  0  0  0
  1  6  1  0  0  0  0
  1  2  2  0  0  0  0
  2  3  1  0  0  0  0
  3  4  2  0  0  0  0
  3  7  1  0  0  0  0
  4  5  1  0  0  0  0
  4 10  1  0  0  0  0
  5  6  2  0  0  0  0
  7  8  1  0  0  0  0
  7 12  1  0  0  0  0
  8  9  1  0  0  0  0
  8 11  2  0  0  0  0
  9 10  2  0  0  0  0
  9 14  1  0  0  0  0
 10 13  1  0  0  0  0
 12 17  1  0  0  0  0
 13 16  1  0  0  0  0
 14 16  2  0  0  0  0
 14 15  1  0  0  0  0
M  END
> <DRUGBANK_ID>
DB07158

> <DRUG_GROUPS>
experimental

> <GENERIC_NAME>
5-ETHYL-3-METHYL-1,5-DIHYDRO-4H-PYRAZOLO[4,3-C]QUINOLIN-4-ONE

> <CHEMICAL_FORMULA>
C13H13N3O

> <MOLECULAR_WEIGHT>
227.2618

> <EXACT_MASS>
227.105862053

> <IUPAC_NAME>
5-ethyl-3-methyl-1H,4H,5H-pyrazolo[4,3-c]quinolin-4-one

> <IUPAC_TRADITIONAL_NAME>
5-ethyl-3-methyl-1H-pyrazolo[4,3-c]quinolin-4-one

> <INCHI_IDENTIFIER>
InChI=1S/C13H13N3O/c1-3-16-10-7-5-4-6-9(10)12-11(13(16)17)8(2)14-15-12/h4-7H,3H2,1-2H3,(H,14,15)

> <INCHI_KEY>
InChIKey=ASEHARDUZDZEKS-UHFFFAOYSA-N

> <SMILES>
CCN1C(=O)C2=C(NN=C2C)C2=C1C=CC=C2

> <JCHEM_ACCEPTOR_COUNT>
2

> <JCHEM_DONOR_COUNT>
1

> <JCHEM_ACIDIC_PKA>
8.49

> <JCHEM_BASIC_PKA>
-0.35

> <JCHEM_PHYSIOLOGICAL_CHARGE>
0

> <ALOGPS_LOGP>
2.05

> <JCHEM_LOGP>
1.32

> <ALOGPS_LOGS>
-2.5

> <JCHEM_POLARIZABILITY>
24.35

> <JCHEM_POLAR_SURFACE_AREA>
48.99

> <JCHEM_REFRACTIVITY>
66.69

> <JCHEM_ROTATABLE_BOND_COUNT>
1

> <ALOGPS_SOLUBILITY>
7.83e-01 g/l __ 

$$$$
