HE1
  Mrv0541 02241213432D          

 16 16  0  0  0  0            999 V2000
   -1.4143   -0.9748    0.0000 P   0  0  0  0  0  0  0  0  0  0  0  0
   -2.1288   -0.5623    0.0000 O   0  0  0  0  0  0  0  0  0  0  0  0
   -1.8268   -1.6892    0.0000 O   0  0  0  0  0  0  0  0  0  0  0  0
   -1.0018   -0.2603    0.0000 O   0  0  0  0  0  0  0  0  0  0  0  0
   -0.6999   -1.3873    0.0000 C   0  0  0  0  0  0  0  0  0  0  0  0
   -0.6999   -2.2123    0.0000 C   0  0  0  0  0  0  0  0  0  0  0  0
    0.7291   -2.2123    0.0000 C   0  0  0  0  0  0  0  0  0  0  0  0
    0.0146   -2.6248    0.0000 C   0  0  0  0  0  0  0  0  0  0  0  0
    1.4435   -2.6248    0.0000 S   0  0  0  0  0  0  0  0  0  0  0  0
    2.8725   -3.4498    0.0000 O   0  0  0  0  0  0  0  0  0  0  0  0
    3.5869   -1.3873    0.0000 C   0  0  0  0  0  0  0  0  0  0  0  0
    3.5869   -2.2123    0.0000 C   0  0  0  0  0  0  0  0  0  0  0  0
    2.8725   -2.6248    0.0000 C   0  0  0  0  0  0  0  0  0  0  0  0
    2.1580   -2.2123    0.0000 C   0  0  0  0  0  0  0  0  0  0  0  0
    2.1580   -1.3873    0.0000 C   0  0  0  0  0  0  0  0  0  0  0  0
    2.8725   -0.9748    0.0000 C   0  0  0  0  0  0  0  0  0  0  0  0
  1  2  1  0  0  0  0
  1  3  1  0  0  0  0
  1  4  2  0  0  0  0
  1  5  1  0  0  0  0
  5  6  2  0  0  0  0
  6  8  1  0  0  0  0
  7  8  1  0  0  0  0
  7  9  1  0  0  0  0
  9 14  1  0  0  0  0
 10 13  1  0  0  0  0
 11 12  2  0  0  0  0
 11 16  1  0  0  0  0
 12 13  1  0  0  0  0
 13 14  2  0  0  0  0
 14 15  1  0  0  0  0
 15 16  2  0  0  0  0
M  END
> <DRUGBANK_ID>
DB07890

> <DRUG_GROUPS>
experimental

> <GENERIC_NAME>
4-(2-HYDROXYPHENYLTHIO)-1-BUTENYLPHOSPHONIC ACID

> <CHEMICAL_FORMULA>
C10H13O4PS

> <MOLECULAR_WEIGHT>
260.247

> <EXACT_MASS>
260.027216106

> <IUPAC_NAME>
[(1E)-4-[(2-hydroxyphenyl)sulfanyl]but-1-en-1-yl]phosphonic acid

> <IUPAC_TRADITIONAL_NAME>
(1E)-4-[(2-hydroxyphenyl)sulfanyl]but-1-en-1-ylphosphonic acid

> <INCHI_IDENTIFIER>
InChI=1S/C10H13O4PS/c11-9-5-1-2-6-10(9)16-8-4-3-7-15(12,13)14/h1-3,5-7,11H,4,8H2,(H2,12,13,14)/b7-3+

> <INCHI_KEY>
InChIKey=GHNIEXOPSISMGX-XVNBXDOJSA-N

> <SMILES>
OC1=C(SCC\C=C\P(O)(O)=O)C=CC=C1

> <JCHEM_ACCEPTOR_COUNT>
4

> <JCHEM_DONOR_COUNT>
3

> <JCHEM_ACIDIC_PKA>
3.62

> <JCHEM_BASIC_PKA>
-5.8

> <JCHEM_PHYSIOLOGICAL_CHARGE>
-1

> <ALOGPS_LOGP>
1.24

> <JCHEM_LOGP>
1.49

> <ALOGPS_LOGS>
-2.3

> <JCHEM_POLARIZABILITY>
25.21

> <JCHEM_POLAR_SURFACE_AREA>
77.76

> <JCHEM_REFRACTIVITY>
66.12

> <JCHEM_ROTATABLE_BOND_COUNT>
5

> <ALOGPS_SOLUBILITY>
1.44e+00 g/l __ 

$$$$
