AAA
  Mrv0541 02241213212D          

 24 25  0  0  0  0            999 V2000
    1.3440    0.4149    0.0000 C    0  0  0  0  0  0  0  0  0  0  0  0
    1.3440    1.2399    0.0000 C    0  0  0  0  0  0  0  0  0  0  0  0
    2.0584    1.6524    0.0000 C    0  0  0  0  0  0  0  0  0  0  0  0
    0.6295    1.6524    0.0000 O    0  0  0  0  0  0  0  0  0  0  0  0
    2.0584    0.0024    0.0000 C    0  0  0  0  0  0  0  0  0  0  0  0
    2.0584   -0.8226    0.0000 C    0  0  0  0  0  0  0  0  0  0  0  0
    1.3440   -1.2351    0.0000 C    0  0  0  0  0  0  0  0  0  0  0  0
    1.3440   -2.0601    0.0000 C    0  0  0  0  0  0  0  0  0  0  0  0
    0.6295   -0.8226    0.0000 C    0  0  0  0  0  0  0  0  0  0  0  0
    0.6295    0.0024    0.0000 C    0  0  0  0  0  0  0  0  0  0  0  0
   -0.0850    0.4149    0.0000 N    0  0  0  0  0  0  0  0  0  0  0  0
   -0.7994    0.0024    0.0000 C    0  0  2  0  0  0  0  0  0  0  0  0
   -0.7994   -0.8226    0.0000 C    0  0  0  0  0  0  0  0  0  0  0  0
   -1.5139   -1.2351    0.0000 N    0  0  0  0  0  0  0  0  0  0  0  0
   -0.0850   -1.2351    0.0000 O    0  0  0  0  0  0  0  0  0  0  0  0
   -1.5139    0.4149    0.0000 C    0  0  0  0  0  0  0  0  0  0  0  0
   -2.2284    0.0024    0.0000 C    0  0  0  0  0  0  0  0  0  0  0  0
   -2.2284   -0.8226    0.0000 Br   0  0  0  0  0  0  0  0  0  0  0  0
   -2.9429    0.4149    0.0000 C    0  0  0  0  0  0  0  0  0  0  0  0
   -2.9429    1.2399    0.0000 C    0  0  0  0  0  0  0  0  0  0  0  0
   -2.2284    1.6524    0.0000 C    0  0  0  0  0  0  0  0  0  0  0  0
   -1.5139    1.2399    0.0000 C    0  0  0  0  0  0  0  0  0  0  0  0
   -0.7994    1.6524    0.0000 Br   0  0  0  0  0  0  0  0  0  0  0  0
   -0.2937   -0.2896    0.0000 H    0  0  0  0  0  0  0  0  0  0  0  0
  1  2  1  0  0  0  0
  1  5  2  0  0  0  0
  1 10  1  0  0  0  0
  2  3  1  0  0  0  0
  2  4  2  0  0  0  0
  5  6  1  0  0  0  0
  6  7  2  0  0  0  0
  7  8  1  0  0  0  0
  7  9  1  0  0  0  0
  9 10  2  0  0  0  0
 10 11  1  0  0  0  0
 12 11  1  6  0  0  0
 12 13  1  0  0  0  0
 12 16  1  0  0  0  0
 12 24  1  1  0  0  0
 13 14  1  0  0  0  0
 13 15  2  0  0  0  0
 16 17  2  0  0  0  0
 16 22  1  0  0  0  0
 17 18  1  0  0  0  0
 17 19  1  0  0  0  0
 19 20  2  0  0  0  0
 20 21  1  0  0  0  0
 21 22  2  0  0  0  0
 22 23  1  0  0  0  0
M  END
> <DRUGBANK_ID>
DB07327

> <DRUG_GROUPS>
experimental

> <GENERIC_NAME>
(2-ACETYL-5-METHYLANILINO)(2,6-DIBROMOPHENYL)ACETAMIDE

> <CHEMICAL_FORMULA>
C17H16Br2N2O2

> <MOLECULAR_WEIGHT>
440.129

> <EXACT_MASS>
437.95785306

> <IUPAC_NAME>
(2S)-2-[(2-acetyl-5-methylphenyl)amino]-2-(2,6-dibromophenyl)acetamide

> <IUPAC_TRADITIONAL_NAME>
(2S)-2-[(2-acetyl-5-methylphenyl)amino]-2-(2,6-dibromophenyl)acetamide

> <INCHI_IDENTIFIER>
InChI=1S/C17H16Br2N2O2/c1-9-6-7-11(10(2)22)14(8-9)21-16(17(20)23)15-12(18)4-3-5-13(15)19/h3-8,16,21H,1-2H3,(H2,20,23)/t16-/m0/s1

> <INCHI_KEY>
InChIKey=FELUFXCUIYHAPB-INIZCTEOSA-N

> <SMILES>
[H][C@@](NC1=CC(C)=CC=C1C(C)=O)(C(N)=O)C1=C(Br)C=CC=C1Br

> <JCHEM_ACCEPTOR_COUNT>
3

> <JCHEM_DONOR_COUNT>
2

> <JCHEM_ACIDIC_PKA>
12.16

> <JCHEM_BASIC_PKA>
-0.67

> <JCHEM_PHYSIOLOGICAL_CHARGE>
0

> <ALOGPS_LOGP>
4.21

> <JCHEM_LOGP>
4.31

> <ALOGPS_LOGS>
-5.6

> <JCHEM_POLARIZABILITY>
37

> <JCHEM_POLAR_SURFACE_AREA>
72.19

> <JCHEM_REFRACTIVITY>
99.21

> <JCHEM_ROTATABLE_BOND_COUNT>
5

> <ALOGPS_SOLUBILITY>
1.04e-03 g/l __ 

$$$$
