IOS
  Mrv0541 02241213472D          

 14 15  0  0  0  0            999 V2000
   -1.1445    1.0689    0.0000 O   0  0  0  0  0  0  0  0  0  0  0  0
   -0.8895   -1.0506    0.0000 N   0  0  0  0  0  0  0  0  0  0  0  0
   -1.3744   -0.3832    0.0000 C   0  0  0  0  0  0  0  0  0  0  0  0
   -0.8895    0.2842    0.0000 C   0  0  0  0  0  0  0  0  0  0  0  0
   -0.1049    0.0293    0.0000 C   0  0  0  0  0  0  0  0  0  0  0  0
    0.6096    0.4418    0.0000 C   0  0  0  0  0  0  0  0  0  0  0  0
    1.3240    0.0293    0.0000 C   0  0  0  0  0  0  0  0  0  0  0  0
    1.3240   -0.7957    0.0000 C   0  0  0  0  0  0  0  0  0  0  0  0
    0.6096   -1.2082    0.0000 C   0  0  0  0  0  0  0  0  0  0  0  0
   -0.1049   -0.7957    0.0000 C   0  0  0  0  0  0  0  0  0  0  0  0
   -1.9514    1.2404    0.0000 S   0  0  0  0  0  0  0  0  0  0  0  0
   -2.7584    1.4119    0.0000 O   0  0  0  0  0  0  0  0  0  0  0  0
   -1.7799    2.0474    0.0000 O   0  0  0  0  0  0  0  0  0  0  0  0
   -2.1230    0.4334    0.0000 O   0  0  0  0  0  0  0  0  0  0  0  0
  1  4  1  0  0  0  0
  1 11  1  0  0  0  0
  2  3  1  0  0  0  0
  2 10  1  0  0  0  0
  3  4  2  0  0  0  0
  4  5  1  0  0  0  0
  5  6  2  0  0  0  0
  5 10  1  0  0  0  0
  6  7  1  0  0  0  0
  7  8  2  0  0  0  0
  8  9  1  0  0  0  0
  9 10  2  0  0  0  0
 11 12  2  0  0  0  0
 11 13  2  0  0  0  0
 11 14  1  0  0  0  0
M  END
> <DRUGBANK_ID>
DB07992

> <DRUG_GROUPS>
experimental

> <GENERIC_NAME>
3-SULFOOXY-1H-INDOLE

> <CHEMICAL_FORMULA>
C8H7NO4S

> <MOLECULAR_WEIGHT>
213.21

> <EXACT_MASS>
213.009578407

> <IUPAC_NAME>
1H-indol-3-yloxidanesulfonic acid

> <IUPAC_TRADITIONAL_NAME>
1H-indol-3-yloxidanesulfonic acid

> <INCHI_IDENTIFIER>
InChI=1S/C8H7NO4S/c10-14(11,12)13-8-5-9-7-4-2-1-3-6(7)8/h1-5,9H,(H,10,11,12)

> <INCHI_KEY>
InChIKey=BXFFHSIDQOFMLE-UHFFFAOYSA-N

> <SMILES>
OS(=O)(=O)OC1=CNC2=CC=CC=C12

> <JCHEM_ACCEPTOR_COUNT>
3

> <JCHEM_DONOR_COUNT>
2

> <JCHEM_ACIDIC_PKA>
-1.8

> <JCHEM_PHYSIOLOGICAL_CHARGE>
-1

> <ALOGPS_LOGP>
-0.48

> <JCHEM_LOGP>
1.29

> <ALOGPS_LOGS>
-2.4

> <JCHEM_POLARIZABILITY>
19.38

> <JCHEM_POLAR_SURFACE_AREA>
79.39

> <JCHEM_REFRACTIVITY>
49.12

> <JCHEM_ROTATABLE_BOND_COUNT>
2

> <ALOGPS_SOLUBILITY>
7.87e-01 g/l __ 

$$$$
