DRL
  Mrv0541 02241213352D          

 12 13  0  0  0  0            999 V2000
   -1.7198    0.8961    0.0000 C   0  0  0  0  0  0  0  0  0  0  0  0
   -1.0053    0.4836    0.0000 C   0  0  0  0  0  0  0  0  0  0  0  0
   -0.2908    0.8961    0.0000 N   0  0  0  0  0  0  0  0  0  0  0  0
    0.4236    0.4836    0.0000 C   0  0  0  0  0  0  0  0  0  0  0  0
    1.1381    0.8961    0.0000 C   0  0  0  0  0  0  0  0  0  0  0  0
    1.8526    0.4836    0.0000 C   0  0  0  0  0  0  0  0  0  0  0  0
    1.8526   -0.3414    0.0000 S   0  0  0  0  0  0  0  0  0  0  0  0
    1.1381   -0.7539    0.0000 C   0  0  0  0  0  0  0  0  0  0  0  0
    0.4236   -0.3414    0.0000 C   0  0  0  0  0  0  0  0  0  0  0  0
   -0.2908   -0.7539    0.0000 C   0  0  0  0  0  0  0  0  0  0  0  0
   -0.2908   -1.5789    0.0000 O   0  0  0  0  0  0  0  0  0  0  0  0
   -1.0053   -0.3414    0.0000 N   0  0  0  0  0  0  0  0  0  0  0  0
  1  2  1  0  0  0  0
  2  3  2  0  0  0  0
  2 12  1  0  0  0  0
  3  4  1  0  0  0  0
  4  5  1  0  0  0  0
  4  9  2  0  0  0  0
  5  6  1  0  0  0  0
  6  7  1  0  0  0  0
  7  8  1  0  0  0  0
  8  9  1  0  0  0  0
  9 10  1  0  0  0  0
 10 11  2  0  0  0  0
 10 12  1  0  0  0  0
M  END
> <DRUGBANK_ID>
DB07677

> <DRUG_GROUPS>
experimental

> <GENERIC_NAME>
2-methyl-3,5,7,8-tetrahydro-4H-thiopyrano[4,3-d]pyrimidin-4-one

> <CHEMICAL_FORMULA>
C8H10N2OS

> <MOLECULAR_WEIGHT>
182.243

> <EXACT_MASS>
182.051383642

> <IUPAC_NAME>
2-methyl-3H,4H,5H,7H,8H-thiopyrano[4,3-d]pyrimidin-4-one

> <IUPAC_TRADITIONAL_NAME>
2-methyl-3H,5H,7H,8H-thiopyrano[4,3-d]pyrimidin-4-one

> <INCHI_IDENTIFIER>
InChI=1S/C8H10N2OS/c1-5-9-7-2-3-12-4-6(7)8(11)10-5/h2-4H2,1H3,(H,9,10,11)

> <INCHI_KEY>
InChIKey=HRYKZAKEAVZGJD-UHFFFAOYSA-N

> <SMILES>
CC1=NC2=C(CSCC2)C(=O)N1

> <JCHEM_ACCEPTOR_COUNT>
2

> <JCHEM_DONOR_COUNT>
1

> <JCHEM_ACIDIC_PKA>
11.51

> <JCHEM_BASIC_PKA>
1.07

> <JCHEM_PHYSIOLOGICAL_CHARGE>
0

> <ALOGPS_LOGP>
0.33

> <JCHEM_LOGP>
-0.13

> <ALOGPS_LOGS>
-1.9

> <JCHEM_POLARIZABILITY>
18.76

> <JCHEM_POLAR_SURFACE_AREA>
41.46

> <JCHEM_REFRACTIVITY>
50.18

> <JCHEM_ROTATABLE_BOND_COUNT>
0

> <ALOGPS_SOLUBILITY>
2.39e+00 g/l __ 

$$$$
