GVO
  Mrv0541 02241213412D          

 22 24  0  0  0  0            999 V2000
    2.6032    0.7249    0.0000 N    0  0  0  0  0  0  0  0  0  0  0  0
    1.8887    1.1374    0.0000 C    0  0  0  0  0  0  0  0  0  0  0  0
    1.1743    0.7249    0.0000 C    0  0  2  0  0  0  0  0  0  0  0  0
    0.4598    1.1374    0.0000 C    0  0  0  0  0  0  0  0  0  0  0  0
   -0.2547    0.7249    0.0000 C    0  0  0  0  0  0  0  0  0  0  0  0
   -0.9691    1.1374    0.0000 C    0  0  0  0  0  0  0  0  0  0  0  0
   -0.9691    1.9624    0.0000 C    0  0  0  0  0  0  0  0  0  0  0  0
   -1.6836    2.3749    0.0000 Cl   0  0  0  0  0  0  0  0  0  0  0  0
   -0.2547    2.3749    0.0000 C    0  0  0  0  0  0  0  0  0  0  0  0
    0.4598    1.9624    0.0000 C    0  0  0  0  0  0  0  0  0  0  0  0
    1.1743   -0.1001    0.0000 C    0  0  0  0  0  0  0  0  0  0  0  0
    1.8887   -0.5126    0.0000 C    0  0  0  0  0  0  0  0  0  0  0  0
    1.8887   -1.3376    0.0000 C    0  0  0  0  0  0  0  0  0  0  0  0
    1.1743   -1.7501    0.0000 C    0  0  0  0  0  0  0  0  0  0  0  0
    0.4598   -1.3376    0.0000 C    0  0  0  0  0  0  0  0  0  0  0  0
    0.4598   -0.5126    0.0000 C    0  0  0  0  0  0  0  0  0  0  0  0
    1.1743   -2.5751    0.0000 C    0  0  0  0  0  0  0  0  0  0  0  0
    1.8417   -3.0601    0.0000 C    0  0  0  0  0  0  0  0  0  0  0  0
    1.5868   -3.8447    0.0000 N    0  0  0  0  0  0  0  0  0  0  0  0
    0.7618   -3.8447    0.0000 N    0  0  0  0  0  0  0  0  0  0  0  0
    0.5068   -3.0601    0.0000 C    0  0  0  0  0  0  0  0  0  0  0  0
    1.1743    1.3088    0.0000 H    0  0  0  0  0  0  0  0  0  0  0  0
  1  2  1  0  0  0  0
  2  3  1  0  0  0  0
  3  4  1  0  0  0  0
  3 11  1  6  0  0  0
  3 22  1  6  0  0  0
  4  5  1  0  0  0  0
  4 10  2  0  0  0  0
  5  6  2  0  0  0  0
  6  7  1  0  0  0  0
  7  8  1  0  0  0  0
  7  9  2  0  0  0  0
  9 10  1  0  0  0  0
 11 12  1  0  0  0  0
 11 16  2  0  0  0  0
 12 13  2  0  0  0  0
 13 14  1  0  0  0  0
 14 15  2  0  0  0  0
 14 17  1  0  0  0  0
 15 16  1  0  0  0  0
 17 18  1  0  0  0  0
 17 21  2  0  0  0  0
 18 19  2  0  0  0  0
 19 20  1  0  0  0  0
 20 21  1  0  0  0  0
M  END
> <DRUGBANK_ID>
DB07858

> <DRUG_GROUPS>
experimental

> <GENERIC_NAME>
(2S)-2-(4-CHLOROPHENYL)-2-[4-(1H-PYRAZOL-4-YL)PHENYL]ETHANAMINE

> <CHEMICAL_FORMULA>
C17H16ClN3

> <MOLECULAR_WEIGHT>
297.782

> <EXACT_MASS>
297.103275234

> <IUPAC_NAME>
(2S)-2-(4-chlorophenyl)-2-[4-(1H-pyrazol-4-yl)phenyl]ethan-1-amine

> <IUPAC_TRADITIONAL_NAME>
(2S)-2-(4-chlorophenyl)-2-[4-(1H-pyrazol-4-yl)phenyl]ethanamine

> <INCHI_IDENTIFIER>
InChI=1S/C17H16ClN3/c18-16-7-5-14(6-8-16)17(9-19)13-3-1-12(2-4-13)15-10-20-21-11-15/h1-8,10-11,17H,9,19H2,(H,20,21)/t17-/m0/s1

> <INCHI_KEY>
InChIKey=HWVGILTYGZFGLR-KRWDZBQOSA-N

> <SMILES>
[H][C@@](CN)(C1=CC=C(Cl)C=C1)C1=CC=C(C=C1)C1=CNN=C1

> <JCHEM_ACCEPTOR_COUNT>
2

> <JCHEM_DONOR_COUNT>
2

> <JCHEM_ACIDIC_PKA>
14.63

> <JCHEM_BASIC_PKA>
9.68

> <JCHEM_PHYSIOLOGICAL_CHARGE>
1

> <ALOGPS_LOGP>
3.74

> <JCHEM_LOGP>
3.44

> <ALOGPS_LOGS>
-5

> <JCHEM_POLARIZABILITY>
32.22

> <JCHEM_POLAR_SURFACE_AREA>
54.7

> <JCHEM_REFRACTIVITY>
87.48

> <JCHEM_ROTATABLE_BOND_COUNT>
4

> <ALOGPS_SOLUBILITY>
3.14e-03 g/l __ 

$$$$
