AN3
  Mrv0541 02241213232D          

 14 16  0  0  0  0            999 V2000
    0.7145    0.4126    0.0000 C   0  0  0  0  0  0  0  0  0  0  0  0
    1.4289    0.8251    0.0000 C   0  0  0  0  0  0  0  0  0  0  0  0
    0.7145   -0.4124    0.0000 C   0  0  0  0  0  0  0  0  0  0  0  0
    2.1434    0.4126    0.0000 C   0  0  0  0  0  0  0  0  0  0  0  0
    1.4289   -0.8249    0.0000 C   0  0  0  0  0  0  0  0  0  0  0  0
    2.1434   -0.4124    0.0000 C   0  0  0  0  0  0  0  0  0  0  0  0
   -2.1434   -0.4124    0.0000 C   0  0  0  0  0  0  0  0  0  0  0  0
   -2.1434    0.4126    0.0000 C   0  0  0  0  0  0  0  0  0  0  0  0
   -1.4289   -0.8249    0.0000 C   0  0  0  0  0  0  0  0  0  0  0  0
   -1.4289    0.8251    0.0000 C   0  0  0  0  0  0  0  0  0  0  0  0
   -0.7145   -0.4124    0.0000 C   0  0  0  0  0  0  0  0  0  0  0  0
   -0.7145    0.4126    0.0000 C   0  0  0  0  0  0  0  0  0  0  0  0
    0.0000    0.8251    0.0000 C   0  0  0  0  0  0  0  0  0  0  0  0
    0.0000   -0.8249    0.0000 C   0  0  0  0  0  0  0  0  0  0  0  0
  1  2  1  0  0  0  0
  1  3  1  0  0  0  0
  1 13  2  0  0  0  0
  2  4  2  0  0  0  0
  3  5  1  0  0  0  0
  3 14  2  0  0  0  0
  4  6  1  0  0  0  0
  5  6  2  0  0  0  0
  7  8  2  0  0  0  0
  7  9  1  0  0  0  0
  8 10  1  0  0  0  0
  9 11  2  0  0  0  0
 10 12  2  0  0  0  0
 11 12  1  0  0  0  0
 11 14  1  0  0  0  0
 12 13  1  0  0  0  0
M  END
> <DRUGBANK_ID>
DB07372

> <DRUG_GROUPS>
experimental

> <GENERIC_NAME>
ANTHRACENE

> <CHEMICAL_FORMULA>
C14H10

> <MOLECULAR_WEIGHT>
178.2292

> <EXACT_MASS>
178.07825032

> <IUPAC_NAME>
anthracene

> <IUPAC_TRADITIONAL_NAME>
anthracene

> <INCHI_IDENTIFIER>
InChI=1S/C14H10/c1-2-6-12-10-14-8-4-3-7-13(14)9-11(12)5-1/h1-10H

> <INCHI_KEY>
InChIKey=MWPLVEDNUUSJAV-UHFFFAOYSA-N

> <SMILES>
C1=CC2=CC3=CC=CC=C3C=C2C=C1

> <JCHEM_ACCEPTOR_COUNT>
0

> <JCHEM_DONOR_COUNT>
0

> <JCHEM_PHYSIOLOGICAL_CHARGE>
0

> <ALOGPS_LOGP>
4.56

> <JCHEM_LOGP>
3.95

> <ALOGPS_LOGS>
-5.6

> <JCHEM_POLARIZABILITY>
20.61

> <JCHEM_POLAR_SURFACE_AREA>
0

> <JCHEM_REFRACTIVITY>
58.96

> <JCHEM_ROTATABLE_BOND_COUNT>
0

> <ALOGPS_SOLUBILITY>
4.84e-04 g/l __ 

$$$$
