FCP
  Mrv0541 02241213382D          

 31 33  0  0  0  0            999 V2000
   -0.0729   -0.2590    0.0000 C   0  0  0  0  0  0  0  0  0  0  0  0
   -2.2163   -0.6715    0.0000 C   0  0  0  0  0  0  0  0  0  0  0  0
   -1.5018    0.5660    0.0000 C   0  0  0  0  0  0  0  0  0  0  0  0
   -2.2163    0.9785    0.0000 C   0  0  0  0  0  0  0  0  0  0  0  0
   -2.9308    0.5660    0.0000 C   0  0  0  0  0  0  0  0  0  0  0  0
   -0.0729    0.5660    0.0000 C   0  0  0  0  0  0  0  0  0  0  0  0
    0.6416    0.9785    0.0000 C   0  0  0  0  0  0  0  0  0  0  0  0
    1.3560    0.5660    0.0000 C   0  0  0  0  0  0  0  0  0  0  0  0
    1.3560   -0.2590    0.0000 C   0  0  0  0  0  0  0  0  0  0  0  0
   -2.9308   -0.2590    0.0000 N   0  0  0  0  0  0  0  0  0  0  0  0
   -1.5018   -0.2590    0.0000 N   0  0  0  0  0  0  0  0  0  0  0  0
   -3.6453    0.9785    0.0000 N   0  0  0  0  0  0  0  0  0  0  0  0
   -0.7874    0.9785    0.0000 N   0  0  0  0  0  0  0  0  0  0  0  0
    0.6416   -0.6715    0.0000 C   0  0  0  0  0  0  0  0  0  0  0  0
    2.0705   -0.6715    0.0000 O   0  0  0  0  0  0  0  0  0  0  0  0
    2.7850   -0.2590    0.0000 C   0  0  0  0  0  0  0  0  0  0  0  0
   -5.7887   -0.2590    0.0000 C   0  0  0  0  0  0  0  0  0  0  0  0
   -5.7887    0.5660    0.0000 C   0  0  0  0  0  0  0  0  0  0  0  0
   -5.0742    0.9785    0.0000 C   0  0  0  0  0  0  0  0  0  0  0  0
   -4.3597    0.5660    0.0000 C   0  0  0  0  0  0  0  0  0  0  0  0
   -5.0742   -0.6715    0.0000 C   0  0  0  0  0  0  0  0  0  0  0  0
   -4.3597   -0.2590    0.0000 C   0  0  0  0  0  0  0  0  0  0  0  0
   -5.0742    1.8035    0.0000 F   0  0  0  0  0  0  0  0  0  0  0  0
   -3.6453   -0.6715    0.0000 F   0  0  0  0  0  0  0  0  0  0  0  0
    3.4995   -0.6715    0.0000 C   0  0  1  0  0  0  0  0  0  0  0  0
    4.2139   -0.2590    0.0000 C   0  0  0  0  0  0  0  0  0  0  0  0
    4.9284   -0.6715    0.0000 N   0  0  0  0  0  0  0  0  0  0  0  0
    5.6429   -0.2590    0.0000 C   0  0  0  0  0  0  0  0  0  0  0  0
    4.9284   -1.4965    0.0000 C   0  0  0  0  0  0  0  0  0  0  0  0
    3.4995   -1.4965    0.0000 O   0  0  0  0  0  0  0  0  0  0  0  0
    3.4995   -0.0876    0.0000 H   0  0  0  0  0  0  0  0  0  0  0  0
  1  6  2  0  0  0  0
  1 14  1  0  0  0  0
  2 10  2  0  0  0  0
  2 11  1  0  0  0  0
  3  4  1  0  0  0  0
  3 11  2  0  0  0  0
  3 13  1  0  0  0  0
  4  5  2  0  0  0  0
  5 10  1  0  0  0  0
  5 12  1  0  0  0  0
  6  7  1  0  0  0  0
  6 13  1  0  0  0  0
  7  8  2  0  0  0  0
  8  9  1  0  0  0  0
  9 14  2  0  0  0  0
  9 15  1  0  0  0  0
 12 20  1  0  0  0  0
 15 16  1  0  0  0  0
 16 25  1  0  0  0  0
 17 18  2  0  0  0  0
 17 21  1  0  0  0  0
 18 19  1  0  0  0  0
 19 20  2  0  0  0  0
 19 23  1  0  0  0  0
 20 22  1  0  0  0  0
 21 22  2  0  0  0  0
 22 24  1  0  0  0  0
 25 26  1  0  0  0  0
 25 30  1  6  0  0  0
 25 31  1  6  0  0  0
 26 27  1  0  0  0  0
 27 28  1  0  0  0  0
 27 29  1  0  0  0  0
M  END
> <DRUGBANK_ID>
DB07761

> <DRUG_GROUPS>
experimental

> <GENERIC_NAME>
(2R)-1-[4-({6-[(2,6-DIFLUOROPHENYL)AMINO]PYRIMIDIN-4-YL}AMINO)PHENOXY]-3-(DIMETHYLAMINO)PROPAN-2-OL

> <CHEMICAL_FORMULA>
C21H23F2N5O2

> <MOLECULAR_WEIGHT>
415.4364

> <EXACT_MASS>
415.181981415

> <IUPAC_NAME>
4-N-(2,6-difluorophenyl)-6-N-{4-[(2R)-3-(dimethylamino)-2-hydroxypropoxy]phenyl}pyrimidine-4,6-diamine

> <IUPAC_TRADITIONAL_NAME>
4-N-(2,6-difluorophenyl)-6-N-{4-[(2R)-3-(dimethylamino)-2-hydroxypropoxy]phenyl}pyrimidine-4,6-diamine

> <INCHI_IDENTIFIER>
InChI=1S/C21H23F2N5O2/c1-28(2)11-15(29)12-30-16-8-6-14(7-9-16)26-19-10-20(25-13-24-19)27-21-17(22)4-3-5-18(21)23/h3-10,13,15,29H,11-12H2,1-2H3,(H2,24,25,26,27)/t15-/m1/s1

> <INCHI_KEY>
InChIKey=ZVSBKYYVBCKDBO-OAHLLOKOSA-N

> <SMILES>
[H][C@](O)(COC1=CC=C(NC2=NC=NC(NC3=C(F)C=CC=C3F)=C2)C=C1)CN(C)C

> <JCHEM_ACCEPTOR_COUNT>
7

> <JCHEM_DONOR_COUNT>
3

> <JCHEM_ACIDIC_PKA>
11.33

> <JCHEM_BASIC_PKA>
8.7

> <JCHEM_PHYSIOLOGICAL_CHARGE>
1

> <ALOGPS_LOGP>
3.45

> <JCHEM_LOGP>
3.63

> <ALOGPS_LOGS>
-4.1

> <JCHEM_POLARIZABILITY>
42.83

> <JCHEM_POLAR_SURFACE_AREA>
82.54

> <JCHEM_REFRACTIVITY>
111.2

> <JCHEM_ROTATABLE_BOND_COUNT>
9

> <ALOGPS_SOLUBILITY>
3.61e-02 g/l __ 

$$$$
