A04
  Mrv0541 02241213202D          

 19 20  0  0  0  0            999 V2000
   -1.0987    2.6538    0.0000 O   0  0  0  0  0  0  0  0  0  0  0  0
   -0.3842    2.2413    0.0000 C   0  0  0  0  0  0  0  0  0  0  0  0
    0.3303    2.6538    0.0000 O   0  0  0  0  0  0  0  0  0  0  0  0
   -0.3842    1.4163    0.0000 C   0  0  0  0  0  0  0  0  0  0  0  0
    0.2833    0.9314    0.0000 O   0  0  0  0  0  0  0  0  0  0  0  0
   -1.0516    0.9314    0.0000 C   0  0  0  0  0  0  0  0  0  0  0  0
   -0.7967    0.1468    0.0000 C   0  0  0  0  0  0  0  0  0  0  0  0
    0.0283    0.1468    0.0000 C   0  0  0  0  0  0  0  0  0  0  0  0
    0.5132   -0.5207    0.0000 C   0  0  0  0  0  0  0  0  0  0  0  0
    1.3337   -0.4344    0.0000 C   0  0  0  0  0  0  0  0  0  0  0  0
    1.8186   -1.1019    0.0000 C   0  0  0  0  0  0  0  0  0  0  0  0
    1.4831   -1.8556    0.0000 C   0  0  0  0  0  0  0  0  0  0  0  0
    0.6626   -1.9418    0.0000 C   0  0  0  0  0  0  0  0  0  0  0  0
    0.1777   -1.2744    0.0000 C   0  0  0  0  0  0  0  0  0  0  0  0
   -0.6428   -1.3606    0.0000 O   0  0  0  0  0  0  0  0  0  0  0  0
   -0.9784   -2.1143    0.0000 C   0  0  0  0  0  0  0  0  0  0  0  0
   -1.3139   -2.8679    0.0000 F   0  0  0  0  0  0  0  0  0  0  0  0
   -1.7320   -1.7787    0.0000 F   0  0  0  0  0  0  0  0  0  0  0  0
   -0.2247   -2.4498    0.0000 F   0  0  0  0  0  0  0  0  0  0  0  0
  1  2  1  0  0  0  0
  2  3  2  0  0  0  0
  2  4  1  0  0  0  0
  4  5  1  0  0  0  0
  4  6  2  0  0  0  0
  5  8  1  0  0  0  0
  6  7  1  0  0  0  0
  7  8  2  0  0  0  0
  8  9  1  0  0  0  0
  9 10  1  0  0  0  0
  9 14  2  0  0  0  0
 10 11  2  0  0  0  0
 11 12  1  0  0  0  0
 12 13  2  0  0  0  0
 13 14  1  0  0  0  0
 14 15  1  0  0  0  0
 15 16  1  0  0  0  0
 16 17  1  0  0  0  0
 16 18  1  0  0  0  0
 16 19  1  0  0  0  0
M  END
> <DRUGBANK_ID>
DB07304

> <DRUG_GROUPS>
experimental

> <GENERIC_NAME>
5-[2-(TRIFLUOROMETHOXY)PHENYL]-2-FUROIC ACID

> <CHEMICAL_FORMULA>
C12H7F3O4

> <MOLECULAR_WEIGHT>
272.1768

> <EXACT_MASS>
272.029643327

> <IUPAC_NAME>
5-[2-(trifluoromethoxy)phenyl]furan-2-carboxylic acid

> <IUPAC_TRADITIONAL_NAME>
5-[2-(trifluoromethoxy)phenyl]furan-2-carboxylic acid

> <INCHI_IDENTIFIER>
InChI=1S/C12H7F3O4/c13-12(14,15)19-9-4-2-1-3-7(9)8-5-6-10(18-8)11(16)17/h1-6H,(H,16,17)

> <INCHI_KEY>
InChIKey=PSLFQKRPFOCZHR-UHFFFAOYSA-N

> <SMILES>
OC(=O)C1=CC=C(O1)C1=C(OC(F)(F)F)C=CC=C1

> <JCHEM_ACCEPTOR_COUNT>
3

> <JCHEM_DONOR_COUNT>
1

> <JCHEM_ACIDIC_PKA>
3.13

> <JCHEM_BASIC_PKA>
-4.7

> <JCHEM_PHYSIOLOGICAL_CHARGE>
-1

> <ALOGPS_LOGP>
3.42

> <JCHEM_LOGP>
3.69

> <ALOGPS_LOGS>
-3.8

> <JCHEM_POLARIZABILITY>
22.19

> <JCHEM_POLAR_SURFACE_AREA>
59.67

> <JCHEM_REFRACTIVITY>
53.79

> <JCHEM_ROTATABLE_BOND_COUNT>
4

> <ALOGPS_SOLUBILITY>
4.36e-02 g/l __ 

$$$$
