DGB
  Mrv0541 02241213342D          

 29 31  0  0  0  0            999 V2000
   -4.3593    0.0569    0.0000 C   0  0  0  0  0  0  0  0  0  0  0  0
   -5.0737   -0.3556    0.0000 C   0  0  0  0  0  0  0  0  0  0  0  0
   -5.7882    0.0569    0.0000 C   0  0  0  0  0  0  0  0  0  0  0  0
   -5.7882    0.8819    0.0000 C   0  0  0  0  0  0  0  0  0  0  0  0
   -5.0737    1.2944    0.0000 C   0  0  0  0  0  0  0  0  0  0  0  0
   -4.3593    0.8819    0.0000 C   0  0  0  0  0  0  0  0  0  0  0  0
   -3.6448    1.2944    0.0000 C   0  0  0  0  0  0  0  0  0  0  0  0
   -3.6448    2.1194    0.0000 O   0  0  0  0  0  0  0  0  0  0  0  0
   -2.9303    0.8819    0.0000 N   0  0  0  0  0  0  0  0  0  0  0  0
   -2.2159    1.2944    0.0000 C   0  0  0  0  0  0  0  0  0  0  0  0
   -1.5014    0.8819    0.0000 C   0  0  0  0  0  0  0  0  0  0  0  0
   -2.9303    0.0569    0.0000 C   0  0  0  0  0  0  0  0  0  0  0  0
   -2.2159   -0.3556    0.0000 C   0  0  0  0  0  0  0  0  0  0  0  0
   -1.5014    0.0569    0.0000 C   0  0  0  0  0  0  0  0  0  0  0  0
   -0.7869   -0.3556    0.0000 C   0  0  0  0  0  0  0  0  0  0  0  0
   -0.0724    0.0569    0.0000 C   0  0  0  0  0  0  0  0  0  0  0  0
    0.6420   -0.3556    0.0000 C   0  0  0  0  0  0  0  0  0  0  0  0
    1.3565    0.0569    0.0000 C   0  0  0  0  0  0  0  0  0  0  0  0
    2.0710   -0.3556    0.0000 N   0  0  0  0  0  0  0  0  0  0  0  0
    2.7854    0.0569    0.0000 C   0  0  0  0  0  0  0  0  0  0  0  0
    2.7854    0.8819    0.0000 O   0  0  0  0  0  0  0  0  0  0  0  0
    3.4999   -0.3556    0.0000 C   0  0  0  0  0  0  0  0  0  0  0  0
    4.2144    0.0569    0.0000 C   0  0  0  0  0  0  0  0  0  0  0  0
    4.9289   -0.3556    0.0000 C   0  0  0  0  0  0  0  0  0  0  0  0
    5.6433    0.0569    0.0000 C   0  0  0  0  0  0  0  0  0  0  0  0
    6.3578   -0.3556    0.0000 C   0  0  0  0  0  0  0  0  0  0  0  0
    6.3578   -1.1806    0.0000 C   0  0  0  0  0  0  0  0  0  0  0  0
    5.6433   -1.5931    0.0000 N   0  0  0  0  0  0  0  0  0  0  0  0
    4.9289   -1.1806    0.0000 C   0  0  0  0  0  0  0  0  0  0  0  0
  1  2  2  0  0  0  0
  1  6  1  0  0  0  0
  2  3  1  0  0  0  0
  3  4  2  0  0  0  0
  4  5  1  0  0  0  0
  5  6  2  0  0  0  0
  6  7  1  0  0  0  0
  7  8  2  0  0  0  0
  7  9  1  0  0  0  0
  9 10  1  0  0  0  0
  9 12  1  0  0  0  0
 10 11  1  0  0  0  0
 11 14  1  0  0  0  0
 12 13  1  0  0  0  0
 13 14  1  0  0  0  0
 14 15  1  0  0  0  0
 15 16  1  0  0  0  0
 16 17  1  0  0  0  0
 17 18  1  0  0  0  0
 18 19  1  0  0  0  0
 19 20  1  0  0  0  0
 20 21  2  0  0  0  0
 20 22  1  0  0  0  0
 22 23  1  0  0  0  0
 23 24  1  0  0  0  0
 24 25  2  0  0  0  0
 24 29  1  0  0  0  0
 25 26  1  0  0  0  0
 26 27  2  0  0  0  0
 27 28  1  0  0  0  0
 28 29  2  0  0  0  0
M  END
> <DRUGBANK_ID>
DB07656

> <DRUG_GROUPS>
experimental

> <GENERIC_NAME>
N-[4-(1-BENZOYLPIPERIDIN-4-YL)BUTYL]-3-PYRIDIN-3-YLPROPANAMIDE

> <CHEMICAL_FORMULA>
C24H31N3O2

> <MOLECULAR_WEIGHT>
393.5218

> <EXACT_MASS>
393.241627251

> <IUPAC_NAME>
N-[4-(1-benzoylpiperidin-4-yl)butyl]-3-(pyridin-3-yl)propanamide

> <IUPAC_TRADITIONAL_NAME>
N-[4-(1-benzoylpiperidin-4-yl)butyl]-3-(pyridin-3-yl)propanamide

> <INCHI_IDENTIFIER>
InChI=1S/C24H31N3O2/c28-23(12-11-21-8-6-15-25-19-21)26-16-5-4-7-20-13-17-27(18-14-20)24(29)22-9-2-1-3-10-22/h1-3,6,8-10,15,19-20H,4-5,7,11-14,16-18H2,(H,26,28)

> <INCHI_KEY>
InChIKey=UKQGSFUTDYQJST-UHFFFAOYSA-N

> <SMILES>
O=C(CCC1=CC=CN=C1)NCCCCC1CCN(CC1)C(=O)C1=CC=CC=C1

> <JCHEM_ACCEPTOR_COUNT>
3

> <JCHEM_DONOR_COUNT>
1

> <JCHEM_ACIDIC_PKA>
15.63

> <JCHEM_BASIC_PKA>
4.93

> <JCHEM_PHYSIOLOGICAL_CHARGE>
0

> <ALOGPS_LOGP>
3.7

> <JCHEM_LOGP>
3.08

> <ALOGPS_LOGS>
-4.6

> <JCHEM_POLARIZABILITY>
46.01

> <JCHEM_POLAR_SURFACE_AREA>
62.3

> <JCHEM_REFRACTIVITY>
115.62

> <JCHEM_ROTATABLE_BOND_COUNT>
9

> <ALOGPS_SOLUBILITY>
9.34e-03 g/l __ 

$$$$
