I48
  Mrv0541 02241213452D          

 27 29  0  0  0  0            999 V2000
   -5.3608    1.5674    0.0000 N   0  3  0  0  0  0  0  0  0  0  0  0
   -4.6463    1.9799    0.0000 C   0  0  0  0  0  0  0  0  0  0  0  0
   -3.9318    1.5674    0.0000 C   0  0  0  0  0  0  0  0  0  0  0  0
   -3.9318    0.7424    0.0000 C   0  0  0  0  0  0  0  0  0  0  0  0
   -4.6463    0.3299    0.0000 C   0  0  0  0  0  0  0  0  0  0  0  0
   -5.3608    0.7424    0.0000 C   0  0  0  0  0  0  0  0  0  0  0  0
   -3.2174    0.3299    0.0000 N   0  0  0  0  0  0  0  0  0  0  0  0
   -2.5029    0.7424    0.0000 C   0  0  0  0  0  0  0  0  0  0  0  0
   -1.7884    0.3299    0.0000 C   0  0  0  0  0  0  0  0  0  0  0  0
   -1.0739    0.7424    0.0000 O   0  0  0  0  0  0  0  0  0  0  0  0
   -0.3595    0.3299    0.0000 C   0  0  0  0  0  0  0  0  0  0  0  0
    0.3550    0.7424    0.0000 C   0  0  0  0  0  0  0  0  0  0  0  0
    1.0695    0.3299    0.0000 C   0  0  0  0  0  0  0  0  0  0  0  0
    1.0695   -0.4951    0.0000 C   0  0  0  0  0  0  0  0  0  0  0  0
    0.3550   -0.9076    0.0000 C   0  0  0  0  0  0  0  0  0  0  0  0
   -0.3595   -0.4951    0.0000 C   0  0  0  0  0  0  0  0  0  0  0  0
    0.3550   -1.7326    0.0000 C   0  0  0  0  0  0  0  0  0  0  0  0
    1.7839    0.7424    0.0000 N   0  0  0  0  0  0  0  0  0  0  0  0
    2.4984    0.3299    0.0000 S   0  0  0  0  0  0  0  0  0  0  0  0
    2.0859   -0.3846    0.0000 O   0  0  0  0  0  0  0  0  0  0  0  0
    2.9109    1.0443    0.0000 O   0  0  0  0  0  0  0  0  0  0  0  0
    3.2129   -0.0826    0.0000 C   0  0  0  0  0  0  0  0  0  0  0  0
    3.9274    0.3299    0.0000 C   0  0  0  0  0  0  0  0  0  0  0  0
    4.6418   -0.0826    0.0000 C   0  0  0  0  0  0  0  0  0  0  0  0
    4.6418   -0.9076    0.0000 C   0  0  0  0  0  0  0  0  0  0  0  0
    3.9274   -1.3201    0.0000 C   0  0  0  0  0  0  0  0  0  0  0  0
    3.2129   -0.9076    0.0000 C   0  0  0  0  0  0  0  0  0  0  0  0
  1  2  1  0  0  0  0
  1  6  2  0  0  0  0
  2  3  2  0  0  0  0
  3  4  1  0  0  0  0
  4  5  2  0  0  0  0
  4  7  1  0  0  0  0
  5  6  1  0  0  0  0
  7  8  1  0  0  0  0
  8  9  1  0  0  0  0
  9 10  1  0  0  0  0
 10 11  1  0  0  0  0
 11 12  2  0  0  0  0
 11 16  1  0  0  0  0
 12 13  1  0  0  0  0
 13 14  2  0  0  0  0
 13 18  1  0  0  0  0
 14 15  1  0  0  0  0
 15 16  2  0  0  0  0
 15 17  1  0  0  0  0
 18 19  1  0  0  0  0
 19 20  2  0  0  0  0
 19 21  2  0  0  0  0
 19 22  1  0  0  0  0
 22 23  2  0  0  0  0
 22 27  1  0  0  0  0
 23 24  1  0  0  0  0
 24 25  2  0  0  0  0
 25 26  1  0  0  0  0
 26 27  2  0  0  0  0
M  END
> <DRUGBANK_ID>
DB07944

> <DRUG_GROUPS>
experimental

> <GENERIC_NAME>
N-{3-METHYL-5-[2-(PYRIDIN-4-YLAMINO)-ETHOXY]-PHENYL}-BENZENESULFONAMIDE

> <CHEMICAL_FORMULA>
C20H22N3O3S

> <MOLECULAR_WEIGHT>
384.472

> <EXACT_MASS>
384.138187275

> <IUPAC_NAME>
4-{[2-(3-benzenesulfonamido-5-methylphenoxy)ethyl]amino}pyridin-1-ium

> <IUPAC_TRADITIONAL_NAME>
4-{[2-(3-benzenesulfonamido-5-methylphenoxy)ethyl]amino}pyridin-1-ium

> <INCHI_IDENTIFIER>
InChI=1S/C20H21N3O3S/c1-16-13-18(23-27(24,25)20-5-3-2-4-6-20)15-19(14-16)26-12-11-22-17-7-9-21-10-8-17/h2-10,13-15,23H,11-12H2,1H3,(H,21,22)/p+1

> <INCHI_KEY>
InChIKey=MPTWCWHNLVMCRW-UHFFFAOYSA-O

> <SMILES>
CC1=CC(OCCNC2=CC=[NH+]C=C2)=CC(NS(=O)(=O)C2=CC=CC=C2)=C1

> <JCHEM_ACCEPTOR_COUNT>
4

> <JCHEM_DONOR_COUNT>
3

> <JCHEM_ACIDIC_PKA>
7.68

> <JCHEM_BASIC_PKA>
8.85

> <JCHEM_PHYSIOLOGICAL_CHARGE>
1

> <ALOGPS_LOGP>
1.09

> <JCHEM_LOGP>
1.84

> <ALOGPS_LOGS>
-5.9

> <JCHEM_POLARIZABILITY>
41.99

> <JCHEM_POLAR_SURFACE_AREA>
81.57

> <JCHEM_REFRACTIVITY>
107.78

> <JCHEM_ROTATABLE_BOND_COUNT>
7

> <ALOGPS_SOLUBILITY>
5.72e-04 g/l __ 

$$$$
