D23
  Mrv0541 02241213322D          

 26 28  0  0  0  0            999 V2000
   -2.8316   -0.8865    0.0000 C   0  0  0  0  0  0  0  0  0  0  0  0
   -3.5460   -0.4740    0.0000 C   0  0  0  0  0  0  0  0  0  0  0  0
   -3.5460    0.3510    0.0000 C   0  0  0  0  0  0  0  0  0  0  0  0
   -2.8316    0.7635    0.0000 C   0  0  0  0  0  0  0  0  0  0  0  0
   -2.1171    0.3510    0.0000 C   0  0  0  0  0  0  0  0  0  0  0  0
   -2.1171   -0.4740    0.0000 C   0  0  0  0  0  0  0  0  0  0  0  0
   -4.2605   -0.8865    0.0000 N   0  0  0  0  0  0  0  0  0  0  0  0
   -1.4026   -0.8865    0.0000 C   0  0  0  0  0  0  0  0  0  0  0  0
   -1.4026   -1.7115    0.0000 C   0  0  0  0  0  0  0  0  0  0  0  0
   -0.6882   -2.1240    0.0000 C   0  0  0  0  0  0  0  0  0  0  0  0
    0.0263   -1.7115    0.0000 C   0  0  0  0  0  0  0  0  0  0  0  0
    0.0263   -0.8865    0.0000 C   0  0  0  0  0  0  0  0  0  0  0  0
   -0.6882   -0.4740    0.0000 C   0  0  0  0  0  0  0  0  0  0  0  0
    0.7408   -2.1240    0.0000 N   0  0  0  0  0  0  0  0  0  0  0  0
    1.4553   -1.7115    0.0000 C   0  0  0  0  0  0  0  0  0  0  0  0
    1.4553   -0.8865    0.0000 N   0  0  0  0  0  0  0  0  0  0  0  0
    0.7408   -0.4740    0.0000 C   0  0  0  0  0  0  0  0  0  0  0  0
    0.7408    0.3510    0.0000 N   0  0  0  0  0  0  0  0  0  0  0  0
    1.4553    0.7635    0.0000 C   0  0  0  0  0  0  0  0  0  0  0  0
    1.8678    0.0490    0.0000 C   0  0  0  0  0  0  0  0  0  0  0  0
    1.0428    1.4780    0.0000 C   0  0  0  0  0  0  0  0  0  0  0  0
    2.1697    1.1760    0.0000 C   0  0  0  0  0  0  0  0  0  0  0  0
    2.1697   -2.1240    0.0000 C   0  0  0  0  0  0  0  0  0  0  0  0
    2.8842   -2.5365    0.0000 F   0  0  0  0  0  0  0  0  0  0  0  0
    1.7572   -2.8385    0.0000 F   0  0  0  0  0  0  0  0  0  0  0  0
    2.5822   -1.4095    0.0000 F   0  0  0  0  0  0  0  0  0  0  0  0
  1  2  2  0  0  0  0
  1  6  1  0  0  0  0
  2  3  1  0  0  0  0
  2  7  1  0  0  0  0
  3  4  2  0  0  0  0
  4  5  1  0  0  0  0
  5  6  2  0  0  0  0
  6  8  1  0  0  0  0
  8  9  1  0  0  0  0
  8 13  2  0  0  0  0
  9 10  2  0  0  0  0
 10 11  1  0  0  0  0
 11 12  2  0  0  0  0
 11 14  1  0  0  0  0
 12 13  1  0  0  0  0
 12 17  1  0  0  0  0
 14 15  2  0  0  0  0
 15 16  1  0  0  0  0
 15 23  1  0  0  0  0
 16 17  2  0  0  0  0
 17 18  1  0  0  0  0
 18 19  1  0  0  0  0
 19 20  1  0  0  0  0
 19 21  1  0  0  0  0
 19 22  1  0  0  0  0
 23 24  1  0  0  0  0
 23 25  1  0  0  0  0
 23 26  1  0  0  0  0
M  END
> <DRUGBANK_ID>
DB07612

> <DRUG_GROUPS>
experimental

> <GENERIC_NAME>
6-(3-AMINOPHENYL)-N-(TERT-BUTYL)-2-(TRIFLUOROMETHYL)QUINAZOLIN-4-AMINE

> <CHEMICAL_FORMULA>
C19H19F3N4

> <MOLECULAR_WEIGHT>
360.3762

> <EXACT_MASS>
360.156181243

> <IUPAC_NAME>
6-(3-aminophenyl)-N-tert-butyl-2-(trifluoromethyl)quinazolin-4-amine

> <IUPAC_TRADITIONAL_NAME>
6-(3-aminophenyl)-N-tert-butyl-2-(trifluoromethyl)quinazolin-4-amine

> <INCHI_IDENTIFIER>
InChI=1S/C19H19F3N4/c1-18(2,3)26-16-14-10-12(11-5-4-6-13(23)9-11)7-8-15(14)24-17(25-16)19(20,21)22/h4-10H,23H2,1-3H3,(H,24,25,26)

> <INCHI_KEY>
InChIKey=XQKJVNGGVLHNLA-UHFFFAOYSA-N

> <SMILES>
CC(C)(C)NC1=NC(=NC2=C1C=C(C=C2)C1=CC=CC(N)=C1)C(F)(F)F

> <JCHEM_ACCEPTOR_COUNT>
4

> <JCHEM_DONOR_COUNT>
2

> <JCHEM_ACIDIC_PKA>
18.54

> <JCHEM_BASIC_PKA>
3.95

> <JCHEM_PHYSIOLOGICAL_CHARGE>
0

> <ALOGPS_LOGP>
5.03

> <JCHEM_LOGP>
4.98

> <ALOGPS_LOGS>
-5.1

> <JCHEM_POLARIZABILITY>
35.95

> <JCHEM_POLAR_SURFACE_AREA>
63.83

> <JCHEM_REFRACTIVITY>
98.58

> <JCHEM_ROTATABLE_BOND_COUNT>
4

> <ALOGPS_SOLUBILITY>
2.92e-03 g/l __ 

$$$$
