41A
  Mrv0541 02241213112D          

 18 20  0  0  0  0            999 V2000
    2.3257   -1.2418    0.0000 C   0  0  0  0  0  0  0  0  0  0  0  0
    2.0435   -0.4665    0.0000 C   0  0  0  0  0  0  0  0  0  0  0  0
    2.8560   -0.3232    0.0000 C   0  0  0  0  0  0  0  0  0  0  0  0
    1.3290   -0.8790    0.0000 C   0  0  0  0  0  0  0  0  0  0  0  0
    0.6146   -0.4665    0.0000 C   0  0  0  0  0  0  0  0  0  0  0  0
    0.6146    0.3585    0.0000 C   0  0  0  0  0  0  0  0  0  0  0  0
    1.3290    0.7710    0.0000 C   0  0  0  0  0  0  0  0  0  0  0  0
    2.0435    0.3585    0.0000 C   0  0  0  0  0  0  0  0  0  0  0  0
    1.3290    1.5960    0.0000 O   0  0  0  0  0  0  0  0  0  0  0  0
   -0.1701    0.6134    0.0000 S   0  0  0  0  0  0  0  0  0  0  0  0
   -0.6550   -0.0540    0.0000 C   0  0  0  0  0  0  0  0  0  0  0  0
   -1.4800   -0.0540    0.0000 N   0  0  0  0  0  0  0  0  0  0  0  0
   -1.8925   -0.7685    0.0000 C   0  0  0  0  0  0  0  0  0  0  0  0
   -2.7175   -0.7685    0.0000 C   0  0  0  0  0  0  0  0  0  0  0  0
   -3.1300   -0.0540    0.0000 O   0  0  0  0  0  0  0  0  0  0  0  0
   -2.7175    0.6605    0.0000 C   0  0  0  0  0  0  0  0  0  0  0  0
   -1.8925    0.6605    0.0000 C   0  0  0  0  0  0  0  0  0  0  0  0
   -0.1701   -0.7214    0.0000 N   0  0  0  0  0  0  0  0  0  0  0  0
  1  2  1  0  0  0  0
  2  3  1  0  0  0  0
  2  4  1  0  0  0  0
  2  8  1  0  0  0  0
  4  5  1  0  0  0  0
  5  6  2  0  0  0  0
  5 18  1  0  0  0  0
  6  7  1  0  0  0  0
  6 10  1  0  0  0  0
  7  8  1  0  0  0  0
  7  9  2  0  0  0  0
 10 11  1  0  0  0  0
 11 12  1  0  0  0  0
 11 18  2  0  0  0  0
 12 13  1  0  0  0  0
 12 17  1  0  0  0  0
 13 14  1  0  0  0  0
 14 15  1  0  0  0  0
 15 16  1  0  0  0  0
 16 17  1  0  0  0  0
M  END
> <DRUGBANK_ID>
DB07073

> <DRUG_GROUPS>
experimental

> <GENERIC_NAME>
5,5-dimethyl-2-morpholin-4-yl-5,6-dihydro-1,3-benzothiazol-7(4H)-one

> <CHEMICAL_FORMULA>
C13H18N2O2S

> <MOLECULAR_WEIGHT>
266.359

> <EXACT_MASS>
266.10889852

> <IUPAC_NAME>
5,5-dimethyl-2-(morpholin-4-yl)-4,5,6,7-tetrahydro-1,3-benzothiazol-7-one

> <IUPAC_TRADITIONAL_NAME>
5,5-dimethyl-2-(morpholin-4-yl)-4,6-dihydro-1,3-benzothiazol-7-one

> <INCHI_IDENTIFIER>
InChI=1S/C13H18N2O2S/c1-13(2)7-9-11(10(16)8-13)18-12(14-9)15-3-5-17-6-4-15/h3-8H2,1-2H3

> <INCHI_KEY>
InChIKey=DZXMARZBAUMWLK-UHFFFAOYSA-N

> <SMILES>
CC1(C)CC2=C(SC(=N2)N2CCOCC2)C(=O)C1

> <JCHEM_ACCEPTOR_COUNT>
4

> <JCHEM_DONOR_COUNT>
0

> <JCHEM_ACIDIC_PKA>
16.31

> <JCHEM_BASIC_PKA>
1.18

> <JCHEM_PHYSIOLOGICAL_CHARGE>
0

> <ALOGPS_LOGP>
2.18

> <JCHEM_LOGP>
2.11

> <ALOGPS_LOGS>
-2.7

> <JCHEM_POLARIZABILITY>
28.85

> <JCHEM_POLAR_SURFACE_AREA>
42.43

> <JCHEM_REFRACTIVITY>
70.9

> <JCHEM_ROTATABLE_BOND_COUNT>
1

> <ALOGPS_SOLUBILITY>
5.57e-01 g/l __ 

$$$$
