IHE
  Mrv0541 02241213462D          

 27 30  0  0  0  0            999 V2000
   -1.7453    2.0929    0.0000 C   0  0  0  0  0  0  0  0  0  0  0  0
   -0.6412    3.3191    0.0000 C   0  0  0  0  0  0  0  0  0  0  0  0
   -1.4482    3.4906    0.0000 N   0  0  0  0  0  0  0  0  0  0  0  0
   -2.0002    2.8775    0.0000 C   0  0  0  0  0  0  0  0  0  0  0  0
   -0.3863    2.5344    0.0000 C   0  0  0  0  0  0  0  0  0  0  0  0
   -0.9383    1.9213    0.0000 N   0  0  0  0  0  0  0  0  0  0  0  0
   -1.7031    4.2752    0.0000 C   0  0  0  0  0  0  0  0  0  0  0  0
   -0.6834    1.1367    0.0000 C   0  0  0  0  0  0  0  0  0  0  0  0
    0.1236    0.9652    0.0000 C   0  0  0  0  0  0  0  0  0  0  0  0
    0.3785    0.1806    0.0000 N   0  0  0  0  0  0  0  0  0  0  0  0
   -0.1064   -0.4869    0.0000 C   0  0  0  0  0  0  0  0  0  0  0  0
    0.3785   -1.1543    0.0000 N   0  0  0  0  0  0  0  0  0  0  0  0
    1.1632   -0.0744    0.0000 C   0  0  0  0  0  0  0  0  0  0  0  0
    1.8776    0.3381    0.0000 N   0  0  0  0  0  0  0  0  0  0  0  0
    2.5921   -0.0744    0.0000 C   0  0  0  0  0  0  0  0  0  0  0  0
    2.5921   -0.8994    0.0000 N   0  0  0  0  0  0  0  0  0  0  0  0
    1.8776   -1.3119    0.0000 C   0  0  0  0  0  0  0  0  0  0  0  0
    1.1632   -0.8994    0.0000 C   0  0  0  0  0  0  0  0  0  0  0  0
    1.8776   -2.1369    0.0000 N   0  0  0  0  0  0  0  0  0  0  0  0
    1.1632   -2.5494    0.0000 C   0  0  0  0  0  0  0  0  0  0  0  0
    1.1632   -3.3744    0.0000 C   0  0  0  0  0  0  0  0  0  0  0  0
    0.4487   -3.7869    0.0000 C   0  0  0  0  0  0  0  0  0  0  0  0
   -0.2658   -3.3744    0.0000 C   0  0  0  0  0  0  0  0  0  0  0  0
   -0.2658   -2.5494    0.0000 C   0  0  0  0  0  0  0  0  0  0  0  0
    0.4487   -2.1369    0.0000 C   0  0  0  0  0  0  0  0  0  0  0  0
    4.0210    0.7506    0.0000 N   0  0  0  0  0  0  0  0  0  0  0  0
    3.3066    0.3381    0.0000 C   0  0  0  0  0  0  0  0  0  0  0  0
  1  4  1  0  0  0  0
  1  6  1  0  0  0  0
  2  3  1  0  0  0  0
  2  5  1  0  0  0  0
  3  4  1  0  0  0  0
  3  7  1  0  0  0  0
  5  6  1  0  0  0  0
  6  8  1  0  0  0  0
  8  9  1  0  0  0  0
  9 10  1  0  0  0  0
 10 11  1  0  0  0  0
 10 13  1  0  0  0  0
 11 12  2  0  0  0  0
 12 18  1  0  0  0  0
 13 14  2  0  0  0  0
 13 18  1  0  0  0  0
 14 15  1  0  0  0  0
 15 16  2  0  0  0  0
 15 27  1  0  0  0  0
 16 17  1  0  0  0  0
 17 18  2  0  0  0  0
 17 19  1  0  0  0  0
 19 20  1  0  0  0  0
 20 21  1  0  0  0  0
 20 25  1  0  0  0  0
 21 22  1  0  0  0  0
 22 23  1  0  0  0  0
 23 24  1  0  0  0  0
 24 25  1  0  0  0  0
 26 27  3  0  0  0  0
M  END
> <DRUGBANK_ID>
DB07965

> <DRUG_GROUPS>
experimental

> <GENERIC_NAME>
6-(CYCLOHEXYLAMINO)-9-[2-(4-METHYLPIPERAZIN-1-YL)-ETHYL]-9H-PURINE-2-CARBONITRILE

> <CHEMICAL_FORMULA>
C19H28N8

> <MOLECULAR_WEIGHT>
368.4792

> <EXACT_MASS>
368.243692936

> <IUPAC_NAME>
6-(cyclohexylamino)-9-[2-(4-methylpiperazin-1-yl)ethyl]-9H-purine-2-carbonitrile

> <IUPAC_TRADITIONAL_NAME>
6-(cyclohexylamino)-9-[2-(4-methylpiperazin-1-yl)ethyl]purine-2-carbonitrile

> <INCHI_IDENTIFIER>
InChI=1S/C19H28N8/c1-25-7-9-26(10-8-25)11-12-27-14-21-17-18(22-15-5-3-2-4-6-15)23-16(13-20)24-19(17)27/h14-15H,2-12H2,1H3,(H,22,23,24)

> <INCHI_KEY>
InChIKey=OGODDSLNRULSMM-UHFFFAOYSA-N

> <SMILES>
CN1CCN(CCN2C=NC3=C(NC4CCCCC4)N=C(N=C23)C#N)CC1

> <JCHEM_ACCEPTOR_COUNT>
7

> <JCHEM_DONOR_COUNT>
1

> <JCHEM_ACIDIC_PKA>
16.53

> <JCHEM_BASIC_PKA>
8.33

> <JCHEM_PHYSIOLOGICAL_CHARGE>
1

> <ALOGPS_LOGP>
2.18

> <JCHEM_LOGP>
2.19

> <ALOGPS_LOGS>
-2.9

> <JCHEM_POLARIZABILITY>
41.42

> <JCHEM_POLAR_SURFACE_AREA>
85.9

> <JCHEM_REFRACTIVITY>
107.46

> <JCHEM_ROTATABLE_BOND_COUNT>
5

> <ALOGPS_SOLUBILITY>
4.94e-01 g/l __ 

$$$$
