3G3
  Mrv0541 02241213102D          

 18 20  0  0  0  0            999 V2000
    0.4029    1.6121    0.0000 O   0  0  0  0  0  0  0  0  0  0  0  0
    0.6578    0.8275    0.0000 C   0  0  0  0  0  0  0  0  0  0  0  0
    1.4424    0.5726    0.0000 C   0  0  0  0  0  0  0  0  0  0  0  0
    2.1569    0.9851    0.0000 C   0  0  0  0  0  0  0  0  0  0  0  0
    2.8714    0.5726    0.0000 C   0  0  0  0  0  0  0  0  0  0  0  0
    2.8714   -0.2524    0.0000 C   0  0  0  0  0  0  0  0  0  0  0  0
    2.1569   -0.6649    0.0000 C   0  0  0  0  0  0  0  0  0  0  0  0
    1.4424   -0.2524    0.0000 C   0  0  0  0  0  0  0  0  0  0  0  0
    0.1729    0.1601    0.0000 N   0  0  0  0  0  0  0  0  0  0  0  0
    0.6578   -0.5074    0.0000 C   0  0  0  0  0  0  0  0  0  0  0  0
    0.4029   -1.2920    0.0000 O   0  0  0  0  0  0  0  0  0  0  0  0
   -0.6521    0.1601    0.0000 C   0  0  0  0  0  0  0  0  0  0  0  0
   -1.0646   -0.5544    0.0000 C   0  0  0  0  0  0  0  0  0  0  0  0
   -1.8896   -0.5544    0.0000 C   0  0  0  0  0  0  0  0  0  0  0  0
   -2.3745   -1.2219    0.0000 N   0  0  0  0  0  0  0  0  0  0  0  0
   -3.1592   -0.9669    0.0000 N   0  0  0  0  0  0  0  0  0  0  0  0
   -3.1592   -0.1419    0.0000 N   0  0  0  0  0  0  0  0  0  0  0  0
   -2.3745    0.1130    0.0000 N   0  0  0  0  0  0  0  0  0  0  0  0
  1  2  2  0  0  0  0
  2  3  1  0  0  0  0
  2  9  1  0  0  0  0
  3  4  2  0  0  0  0
  3  8  1  0  0  0  0
  4  5  1  0  0  0  0
  5  6  2  0  0  0  0
  6  7  1  0  0  0  0
  7  8  2  0  0  0  0
  8 10  1  0  0  0  0
  9 10  1  0  0  0  0
  9 12  1  0  0  0  0
 10 11  2  0  0  0  0
 12 13  1  0  0  0  0
 13 14  1  0  0  0  0
 14 15  2  0  0  0  0
 14 18  1  0  0  0  0
 15 16  1  0  0  0  0
 16 17  2  0  0  0  0
 17 18  1  0  0  0  0
M  END
> <DRUGBANK_ID>
DB07055

> <DRUG_GROUPS>
experimental

> <GENERIC_NAME>
2-[2-(1H-tetrazol-5-yl)ethyl]-1H-isoindole-1,3(2H)-dione

> <CHEMICAL_FORMULA>
C11H9N5O2

> <MOLECULAR_WEIGHT>
243.2215

> <EXACT_MASS>
243.075624557

> <IUPAC_NAME>
2-[2-(1H-1,2,3,4-tetrazol-5-yl)ethyl]-2,3-dihydro-1H-isoindole-1,3-dione

> <IUPAC_TRADITIONAL_NAME>
2-[2-(1H-1,2,3,4-tetrazol-5-yl)ethyl]isoindole-1,3-dione

> <INCHI_IDENTIFIER>
InChI=1S/C11H9N5O2/c17-10-7-3-1-2-4-8(7)11(18)16(10)6-5-9-12-14-15-13-9/h1-4H,5-6H2,(H,12,13,14,15)

> <INCHI_KEY>
InChIKey=DEOJDUHRJBKATO-UHFFFAOYSA-N

> <SMILES>
O=C1N(CCC2=NN=NN2)C(=O)C2=CC=CC=C12

> <JCHEM_ACCEPTOR_COUNT>
5

> <JCHEM_DONOR_COUNT>
1

> <JCHEM_ACIDIC_PKA>
4.42

> <JCHEM_BASIC_PKA>
-1.2

> <JCHEM_PHYSIOLOGICAL_CHARGE>
-1

> <ALOGPS_LOGP>
0.36

> <JCHEM_LOGP>
0.21

> <ALOGPS_LOGS>
-2.2

> <JCHEM_POLARIZABILITY>
23.3

> <JCHEM_POLAR_SURFACE_AREA>
91.84

> <JCHEM_REFRACTIVITY>
65.11

> <JCHEM_ROTATABLE_BOND_COUNT>
3

> <ALOGPS_SOLUBILITY>
1.38e+00 g/l __ 

$$$$
