FR4
  Mrv0541 02241213382D          

 34 37  0  0  0  0            999 V2000
   -3.3771    1.2095    0.0000 C   0  0  0  0  0  0  0  0  0  0  0  0
   -3.0416    0.4558    0.0000 N   0  0  0  0  0  0  0  0  0  0  0  0
   -3.6547   -0.0962    0.0000 C   0  0  0  0  0  0  0  0  0  0  0  0
   -4.3691    0.3163    0.0000 N   0  0  0  0  0  0  0  0  0  0  0  0
   -4.1976    1.1232    0.0000 C   0  0  0  0  0  0  0  0  0  0  0  0
   -4.7497    1.7363    0.0000 C   0  0  0  0  0  0  0  0  0  0  0  0
   -5.5566    1.5648    0.0000 O   0  0  0  0  0  0  0  0  0  0  0  0
   -4.4947    2.5209    0.0000 N   0  0  0  0  0  0  0  0  0  0  0  0
   -2.2346    0.2843    0.0000 C   0  0  1  0  0  0  0  0  0  0  0  0
   -1.6826    0.8974    0.0000 C   0  0  0  0  0  0  0  0  0  0  0  0
   -0.8756    0.7258    0.0000 O   0  0  0  0  0  0  0  0  0  0  0  0
   -1.9797   -0.5004    0.0000 C   0  0  0  0  0  0  0  0  0  0  0  0
   -1.1727   -0.6719    0.0000 C   0  0  0  0  0  0  0  0  0  0  0  0
   -0.9178   -1.4565    0.0000 N   0  0  0  0  0  0  0  0  0  0  0  0
   -1.4027   -2.1239    0.0000 C   0  0  0  0  0  0  0  0  0  0  0  0
   -0.9178   -2.7914    0.0000 C   0  0  0  0  0  0  0  0  0  0  0  0
   -0.1331   -2.5364    0.0000 C   0  0  0  0  0  0  0  0  0  0  0  0
   -0.1331   -1.7114    0.0000 C   0  0  0  0  0  0  0  0  0  0  0  0
    0.5813   -2.9489    0.0000 C   0  0  0  0  0  0  0  0  0  0  0  0
    1.2958   -2.5364    0.0000 C   0  0  0  0  0  0  0  0  0  0  0  0
    1.2958   -1.7114    0.0000 C   0  0  0  0  0  0  0  0  0  0  0  0
    0.5813   -1.2989    0.0000 C   0  0  0  0  0  0  0  0  0  0  0  0
    2.0103   -1.2989    0.0000 N   0  0  0  0  0  0  0  0  0  0  0  0
    2.0103   -0.4739    0.0000 C   0  0  0  0  0  0  0  0  0  0  0  0
    1.2958   -0.0614    0.0000 O   0  0  0  0  0  0  0  0  0  0  0  0
    2.7247   -0.0614    0.0000 C   0  0  0  0  0  0  0  0  0  0  0  0
    2.7247    0.7636    0.0000 C   0  0  0  0  0  0  0  0  0  0  0  0
    4.1537    0.7636    0.0000 C   0  0  0  0  0  0  0  0  0  0  0  0
    3.4392    1.1761    0.0000 C   0  0  0  0  0  0  0  0  0  0  0  0
    3.4392    2.0011    0.0000 C   0  0  0  0  0  0  0  0  0  0  0  0
    4.1537    2.4136    0.0000 C   0  0  0  0  0  0  0  0  0  0  0  0
    4.8682    2.0011    0.0000 C   0  0  0  0  0  0  0  0  0  0  0  0
    4.8682    1.1761    0.0000 C   0  0  0  0  0  0  0  0  0  0  0  0
   -2.4151    0.8396    0.0000 H   0  0  0  0  0  0  0  0  0  0  0  0
  1  2  1  0  0  0  0
  1  5  2  0  0  0  0
  2  3  1  0  0  0  0
  9  2  1  1  0  0  0
  3  4  2  0  0  0  0
  4  5  1  0  0  0  0
  5  6  1  0  0  0  0
  6  7  2  0  0  0  0
  6  8  1  0  0  0  0
  9 10  1  0  0  0  0
  9 12  1  0  0  0  0
  9 34  1  6  0  0  0
 10 11  1  0  0  0  0
 12 13  1  0  0  0  0
 13 14  1  0  0  0  0
 14 15  1  0  0  0  0
 14 18  1  0  0  0  0
 15 16  2  0  0  0  0
 16 17  1  0  0  0  0
 17 18  2  0  0  0  0
 17 19  1  0  0  0  0
 18 22  1  0  0  0  0
 19 20  2  0  0  0  0
 20 21  1  0  0  0  0
 21 22  2  0  0  0  0
 21 23  1  0  0  0  0
 23 24  1  0  0  0  0
 24 25  2  0  0  0  0
 24 26  1  0  0  0  0
 26 27  1  0  0  0  0
 27 29  1  0  0  0  0
 28 29  2  0  0  0  0
 28 33  1  0  0  0  0
 29 30  1  0  0  0  0
 30 31  2  0  0  0  0
 31 32  1  0  0  0  0
 32 33  2  0  0  0  0
M  END
> <DRUGBANK_ID>
DB07783

> <DRUG_GROUPS>
experimental

> <GENERIC_NAME>
1-((1R)-1-(HYDROXYMETHYL)-3-{6-[(3-PHENYLPROPANOYL)AMINO]-1H-INDOL-1-YL}PROPYL)-1H-IMIDAZOLE-4-CARBOXAMIDE

> <CHEMICAL_FORMULA>
C25H27N5O3

> <MOLECULAR_WEIGHT>
445.5136

> <EXACT_MASS>
445.211389755

> <IUPAC_NAME>
1-[(2R)-1-hydroxy-4-[6-(3-phenylpropanamido)-1H-indol-1-yl]butan-2-yl]-1H-imidazole-4-carboxamide

> <IUPAC_TRADITIONAL_NAME>
1-[(2R)-1-hydroxy-4-[6-(3-phenylpropanamido)indol-1-yl]butan-2-yl]imidazole-4-carboxamide

> <INCHI_IDENTIFIER>
InChI=1S/C25H27N5O3/c26-25(33)22-15-30(17-27-22)21(16-31)11-13-29-12-10-19-7-8-20(14-23(19)29)28-24(32)9-6-18-4-2-1-3-5-18/h1-5,7-8,10,12,14-15,17,21,31H,6,9,11,13,16H2,(H2,26,33)(H,28,32)/t21-/m1/s1

> <INCHI_KEY>
InChIKey=GUYYFMCFEPDDFL-OAQYLSRUSA-N

> <SMILES>
[H][C@](CO)(CCN1C=CC2=C1C=C(NC(=O)CCC1=CC=CC=C1)C=C2)N1C=NC(=C1)C(N)=O

> <JCHEM_ACCEPTOR_COUNT>
4

> <JCHEM_DONOR_COUNT>
3

> <JCHEM_ACIDIC_PKA>
13.54

> <JCHEM_BASIC_PKA>
3.53

> <JCHEM_PHYSIOLOGICAL_CHARGE>
0

> <ALOGPS_LOGP>
2.88

> <JCHEM_LOGP>
2.39

> <ALOGPS_LOGS>
-4.1

> <JCHEM_POLARIZABILITY>
48.16

> <JCHEM_POLAR_SURFACE_AREA>
115.17

> <JCHEM_REFRACTIVITY>
127.7

> <JCHEM_ROTATABLE_BOND_COUNT>
10

> <ALOGPS_SOLUBILITY>
3.20e-02 g/l __ 

$$$$
