C95
  Mrv0541 02241213292D          

 22 24  0  0  0  0            999 V2000
   -1.3790    3.4526    0.0000 O   0  0  0  0  0  0  0  0  0  0  0  0
    0.0499    3.4526    0.0000 O   0  0  0  0  0  0  0  0  0  0  0  0
   -0.6645    2.2151    0.0000 C   0  0  0  0  0  0  0  0  0  0  0  0
    0.0499    1.8026    0.0000 C   0  0  0  0  0  0  0  0  0  0  0  0
    0.0499    0.9776    0.0000 C   0  0  0  0  0  0  0  0  0  0  0  0
   -0.6645    0.5651    0.0000 C   0  0  0  0  0  0  0  0  0  0  0  0
   -1.3790    0.9776    0.0000 C   0  0  0  0  0  0  0  0  0  0  0  0
   -1.3790    1.8026    0.0000 C   0  0  0  0  0  0  0  0  0  0  0  0
   -0.6645   -0.2599    0.0000 C   0  0  0  0  0  0  0  0  0  0  0  0
    0.0029   -0.7448    0.0000 O   0  0  0  0  0  0  0  0  0  0  0  0
   -1.3320   -0.7448    0.0000 C   0  0  0  0  0  0  0  0  0  0  0  0
   -1.0770   -1.5295    0.0000 C   0  0  0  0  0  0  0  0  0  0  0  0
   -0.2520   -1.5295    0.0000 C   0  0  0  0  0  0  0  0  0  0  0  0
    0.2329   -2.1969    0.0000 C   0  0  0  0  0  0  0  0  0  0  0  0
    1.0534   -2.1107    0.0000 C   0  0  0  0  0  0  0  0  0  0  0  0
    1.4659   -1.3962    0.0000 S   0  0  0  0  0  0  0  0  0  0  0  0
    2.2728   -1.5677    0.0000 C   0  0  0  0  0  0  0  0  0  0  0  0
    2.8859   -1.0157    0.0000 N   0  0  0  0  0  0  0  0  0  0  0  0
    2.3591   -2.3882    0.0000 N   0  0  0  0  0  0  0  0  0  0  0  0
   -0.6645    3.0401    0.0000 C   0  0  0  0  0  0  0  0  0  0  0  0
    1.6054   -2.7238    0.0000 C   0  0  0  0  0  0  0  0  0  0  0  0
    1.4339   -3.5307    0.0000 O   0  0  0  0  0  0  0  0  0  0  0  0
  1 20  2  0  0  0  0
  2 20  1  0  0  0  0
  3  4  1  0  0  0  0
  3  8  2  0  0  0  0
  3 20  1  0  0  0  0
  4  5  2  0  0  0  0
  5  6  1  0  0  0  0
  6  7  2  0  0  0  0
  6  9  1  0  0  0  0
  7  8  1  0  0  0  0
  9 10  1  0  0  0  0
  9 11  2  0  0  0  0
 10 13  1  0  0  0  0
 11 12  1  0  0  0  0
 12 13  2  0  0  0  0
 13 14  1  0  0  0  0
 14 15  2  0  0  0  0
 15 16  1  0  0  0  0
 15 21  1  0  0  0  0
 16 17  1  0  0  0  0
 17 18  2  0  0  0  0
 17 19  1  0  0  0  0
 19 21  1  0  0  0  0
 21 22  2  0  0  0  0
M  END
> <DRUGBANK_ID>
DB07539

> <DRUG_GROUPS>
experimental

> <GENERIC_NAME>
4-{5-[(Z)-(2-IMINO-4-OXO-1,3-THIAZOLIDIN-5-YLIDENE)METHYL]FURAN-2-YL}BENZOIC ACID

> <CHEMICAL_FORMULA>
C15H10N2O4S

> <MOLECULAR_WEIGHT>
314.316

> <EXACT_MASS>
314.036127508

> <IUPAC_NAME>
4-(5-{[(5Z)-2-imino-4-oxo-1,3-thiazolidin-5-ylidene]methyl}furan-2-yl)benzoic acid

> <IUPAC_TRADITIONAL_NAME>
4-(5-{[(5Z)-2-imino-4-oxo-1,3-thiazolidin-5-ylidene]methyl}furan-2-yl)benzoic acid

> <INCHI_IDENTIFIER>
InChI=1S/C15H10N2O4S/c16-15-17-13(18)12(22-15)7-10-5-6-11(21-10)8-1-3-9(4-2-8)14(19)20/h1-7H,(H,19,20)(H2,16,17,18)/b12-7-

> <INCHI_KEY>
InChIKey=JLRKRQCTYQGDKJ-GHXNOFRVSA-N

> <SMILES>
OC(=O)C1=CC=C(C=C1)C1=CC=C(O1)\C=C1/SC(=N)NC1=O

> <JCHEM_ACCEPTOR_COUNT>
4

> <JCHEM_DONOR_COUNT>
3

> <JCHEM_ACIDIC_PKA>
3.9

> <JCHEM_BASIC_PKA>
1.47

> <JCHEM_PHYSIOLOGICAL_CHARGE>
-1

> <ALOGPS_LOGP>
2.27

> <JCHEM_LOGP>
2.15

> <ALOGPS_LOGS>
-3.6

> <JCHEM_POLARIZABILITY>
31.12

> <JCHEM_POLAR_SURFACE_AREA>
103.39

> <JCHEM_REFRACTIVITY>
93.35

> <JCHEM_ROTATABLE_BOND_COUNT>
3

> <ALOGPS_SOLUBILITY>
8.08e-02 g/l __ 

$$$$
