GT9
  Mrv0541 02241213412D          

 17 16  0  0  0  0            999 V2000
    3.4833    1.0627    0.0000 N   0  0  0  0  0  0  0  0  0  0  0  0
    3.4833    0.2377    0.0000 C   0  0  1  0  0  0  0  0  0  0  0  0
    2.7688   -0.1748    0.0000 C   0  0  0  0  0  0  0  0  0  0  0  0
    2.0544    0.2377    0.0000 S   0  0  0  0  0  0  0  0  0  0  0  0
    4.1978   -0.1748    0.0000 C   0  0  0  0  0  0  0  0  0  0  0  0
    4.9122    0.2377    0.0000 O   0  0  0  0  0  0  0  0  0  0  0  0
    4.1978   -0.9998    0.0000 O   0  0  0  0  0  0  0  0  0  0  0  0
    1.3399   -0.1748    0.0000 C   0  0  0  0  0  0  0  0  0  0  0  0
    0.6254    0.2377    0.0000 C   0  0  0  0  0  0  0  0  0  0  0  0
   -0.0891   -0.1748    0.0000 C   0  0  0  0  0  0  0  0  0  0  0  0
   -0.8035    0.2377    0.0000 C   0  0  0  0  0  0  0  0  0  0  0  0
   -1.5180   -0.1748    0.0000 C   0  0  0  0  0  0  0  0  0  0  0  0
   -2.2325    0.2377    0.0000 C   0  0  0  0  0  0  0  0  0  0  0  0
   -2.9469   -0.1748    0.0000 C   0  0  0  0  0  0  0  0  0  0  0  0
   -3.6614    0.2377    0.0000 C   0  0  0  0  0  0  0  0  0  0  0  0
   -4.3759   -0.1748    0.0000 C   0  0  0  0  0  0  0  0  0  0  0  0
    2.9776    0.5297    0.0000 H   0  0  0  0  0  0  0  0  0  0  0  0
  2  1  1  6  0  0  0
  2  3  1  0  0  0  0
  2  5  1  0  0  0  0
  2 17  1  1  0  0  0
  3  4  1  0  0  0  0
  4  8  1  0  0  0  0
  5  6  2  0  0  0  0
  5  7  1  0  0  0  0
  8  9  1  0  0  0  0
  9 10  1  0  0  0  0
 10 11  1  0  0  0  0
 11 12  1  0  0  0  0
 12 13  1  0  0  0  0
 13 14  1  0  0  0  0
 14 15  1  0  0  0  0
 15 16  1  0  0  0  0
M  END
> <DRUGBANK_ID>
DB07849

> <DRUG_GROUPS>
experimental

> <GENERIC_NAME>
S-NONYL-CYSTEINE

> <CHEMICAL_FORMULA>
C12H25NO2S

> <MOLECULAR_WEIGHT>
247.397

> <EXACT_MASS>
247.160599739

> <IUPAC_NAME>
(2R)-2-amino-3-(nonylsulfanyl)propanoic acid

> <IUPAC_TRADITIONAL_NAME>
(2R)-2-amino-3-(nonylsulfanyl)propanoic acid

> <INCHI_IDENTIFIER>
InChI=1S/C12H25NO2S/c1-2-3-4-5-6-7-8-9-16-10-11(13)12(14)15/h11H,2-10,13H2,1H3,(H,14,15)/t11-/m0/s1

> <INCHI_KEY>
InChIKey=NYQGIUKEPYHDNY-NSHDSACASA-N

> <SMILES>
[H][C@](N)(CSCCCCCCCCC)C(O)=O

> <JCHEM_ACCEPTOR_COUNT>
3

> <JCHEM_DONOR_COUNT>
2

> <JCHEM_ACIDIC_PKA>
2.51

> <JCHEM_BASIC_PKA>
9.14

> <JCHEM_PHYSIOLOGICAL_CHARGE>
0

> <ALOGPS_LOGP>
0.99

> <JCHEM_LOGP>
1.04

> <ALOGPS_LOGS>
-4

> <JCHEM_POLARIZABILITY>
30.63

> <JCHEM_POLAR_SURFACE_AREA>
63.32

> <JCHEM_REFRACTIVITY>
69.8

> <JCHEM_ROTATABLE_BOND_COUNT>
11

> <ALOGPS_SOLUBILITY>
2.63e-02 g/l __ 

$$$$
