AE4
  Mrv0541 02241213222D          

 18 17  0  0  0  0            999 V2000
   -6.0308   -0.2063    0.0000 C   0  0  0  0  0  0  0  0  0  0  0  0
   -5.3163    0.2062    0.0000 C   0  0  0  0  0  0  0  0  0  0  0  0
   -4.6017   -0.2063    0.0000 O   0  0  0  0  0  0  0  0  0  0  0  0
   -3.8872    0.2062    0.0000 C   0  0  0  0  0  0  0  0  0  0  0  0
   -3.1727   -0.2063    0.0000 C   0  0  0  0  0  0  0  0  0  0  0  0
   -2.4582    0.2062    0.0000 O   0  0  0  0  0  0  0  0  0  0  0  0
   -1.7436   -0.2063    0.0000 C   0  0  0  0  0  0  0  0  0  0  0  0
   -1.0292    0.2062    0.0000 C   0  0  0  0  0  0  0  0  0  0  0  0
    0.3999    0.2062    0.0000 C   0  0  0  0  0  0  0  0  0  0  0  0
   -0.3146   -0.2063    0.0000 O   0  0  0  0  0  0  0  0  0  0  0  0
    1.1145   -0.2063    0.0000 C   0  0  0  0  0  0  0  0  0  0  0  0
    1.8289    0.2062    0.0000 O   0  0  0  0  0  0  0  0  0  0  0  0
    2.5435   -0.2063    0.0000 C   0  0  0  0  0  0  0  0  0  0  0  0
    3.2580    0.2062    0.0000 C   0  0  0  0  0  0  0  0  0  0  0  0
    3.9725   -0.2063    0.0000 O   0  0  0  0  0  0  0  0  0  0  0  0
    4.6870    0.2062    0.0000 C   0  0  0  0  0  0  0  0  0  0  0  0
    5.4016   -0.2063    0.0000 C   0  0  0  0  0  0  0  0  0  0  0  0
    6.1162    0.2062    0.0000 O   0  0  0  0  0  0  0  0  0  0  0  0
  1  2  1  0  0  0  0
  2  3  1  0  0  0  0
  3  4  1  0  0  0  0
  4  5  1  0  0  0  0
  5  6  1  0  0  0  0
  6  7  1  0  0  0  0
  7  8  1  0  0  0  0
  8 10  1  0  0  0  0
  9 10  1  0  0  0  0
  9 11  1  0  0  0  0
 11 12  1  0  0  0  0
 12 13  1  0  0  0  0
 13 14  1  0  0  0  0
 14 15  1  0  0  0  0
 15 16  1  0  0  0  0
 16 17  1  0  0  0  0
 17 18  1  0  0  0  0
M  END
> <DRUGBANK_ID>
DB07344

> <DRUG_GROUPS>
experimental

> <GENERIC_NAME>
3,6,9,12,15-PENTAOXAHEPTADECAN-1-OL

> <CHEMICAL_FORMULA>
C12H26O6

> <MOLECULAR_WEIGHT>
266.3312

> <EXACT_MASS>
266.172938564

> <IUPAC_NAME>
3,6,9,12,15-pentaoxaheptadecan-1-ol

> <IUPAC_TRADITIONAL_NAME>
3,6,9,12,15-pentaoxaheptadecan-1-ol

> <INCHI_IDENTIFIER>
InChI=1S/C12H26O6/c1-2-14-5-6-16-9-10-18-12-11-17-8-7-15-4-3-13/h13H,2-12H2,1H3

> <INCHI_KEY>
InChIKey=NJRFAMBTWHGSDE-UHFFFAOYSA-N

> <SMILES>
CCOCCOCCOCCOCCOCCO

> <JCHEM_ACCEPTOR_COUNT>
6

> <JCHEM_DONOR_COUNT>
1

> <JCHEM_ACIDIC_PKA>
15.12

> <JCHEM_BASIC_PKA>
-2.7

> <JCHEM_PHYSIOLOGICAL_CHARGE>
0

> <ALOGPS_LOGP>
-0.01

> <JCHEM_LOGP>
-0.4

> <ALOGPS_LOGS>
-2

> <JCHEM_POLARIZABILITY>
31.49

> <JCHEM_POLAR_SURFACE_AREA>
66.38

> <JCHEM_REFRACTIVITY>
68.23

> <JCHEM_ROTATABLE_BOND_COUNT>
15

> <ALOGPS_SOLUBILITY>
2.40e+00 g/l __ 

$$$$
