783
  Mrv0541 02241213172D          

 27 30  0  0  0  0            999 V2000
    3.0543   -0.0997    0.0000 C   0  0  0  0  0  0  0  0  0  0  0  0
    3.0543   -0.9247    0.0000 C   0  0  0  0  0  0  0  0  0  0  0  0
    2.3398   -1.3372    0.0000 C   0  0  0  0  0  0  0  0  0  0  0  0
    1.6253   -0.9247    0.0000 C   0  0  0  0  0  0  0  0  0  0  0  0
    1.6253   -0.0997    0.0000 C   0  0  0  0  0  0  0  0  0  0  0  0
    2.3398    0.3128    0.0000 C   0  0  0  0  0  0  0  0  0  0  0  0
    3.7687    0.3128    0.0000 C   0  0  0  0  0  0  0  0  0  0  0  0
    4.4832   -0.0997    0.0000 N   0  0  0  0  0  0  0  0  0  0  0  0
    3.7687    1.1378    0.0000 N   0  3  0  0  0  0  0  0  0  0  0  0
    0.8407   -1.1797    0.0000 N   0  0  0  0  0  0  0  0  0  0  0  0
    0.8407    0.1552    0.0000 C   0  0  0  0  0  0  0  0  0  0  0  0
    0.3558   -0.5122    0.0000 C   0  0  0  0  0  0  0  0  0  0  0  0
   -0.4692   -0.5122    0.0000 C   0  0  0  0  0  0  0  0  0  0  0  0
   -0.8817   -1.2267    0.0000 C   0  0  0  0  0  0  0  0  0  0  0  0
   -1.7067   -1.2267    0.0000 C   0  0  0  0  0  0  0  0  0  0  0  0
   -2.1192   -1.9412    0.0000 O   0  0  0  0  0  0  0  0  0  0  0  0
   -2.9442   -1.9412    0.0000 C   0  0  0  0  0  0  0  0  0  0  0  0
   -2.1192   -0.5122    0.0000 C   0  0  0  0  0  0  0  0  0  0  0  0
   -1.7067    0.2023    0.0000 C   0  0  0  0  0  0  0  0  0  0  0  0
   -0.8817    0.2023    0.0000 C   0  0  0  0  0  0  0  0  0  0  0  0
   -0.4692    0.9167    0.0000 O   0  5  0  0  0  0  0  0  0  0  0  0
   -2.1192    0.9167    0.0000 C   0  0  0  0  0  0  0  0  0  0  0  0
   -2.9442    0.9167    0.0000 C   0  0  0  0  0  0  0  0  0  0  0  0
   -3.3567    1.6312    0.0000 C   0  0  0  0  0  0  0  0  0  0  0  0
   -2.9442    2.3457    0.0000 C   0  0  0  0  0  0  0  0  0  0  0  0
   -2.1192    2.3457    0.0000 C   0  0  0  0  0  0  0  0  0  0  0  0
   -1.7067    1.6312    0.0000 C   0  0  0  0  0  0  0  0  0  0  0  0
  1  2  2  0  0  0  0
  1  6  1  0  0  0  0
  1  7  1  0  0  0  0
  2  3  1  0  0  0  0
  3  4  2  0  0  0  0
  4  5  1  0  0  0  0
  4 10  1  0  0  0  0
  5  6  2  0  0  0  0
  5 11  1  0  0  0  0
  7  8  1  0  0  0  0
  7  9  2  0  0  0  0
 10 12  1  0  0  0  0
 11 12  2  0  0  0  0
 12 13  1  0  0  0  0
 13 14  2  0  0  0  0
 13 20  1  0  0  0  0
 14 15  1  0  0  0  0
 15 16  1  0  0  0  0
 15 18  2  0  0  0  0
 16 17  1  0  0  0  0
 18 19  1  0  0  0  0
 19 20  2  0  0  0  0
 19 22  1  0  0  0  0
 20 21  1  0  0  0  0
 22 23  2  0  0  0  0
 22 27  1  0  0  0  0
 23 24  1  0  0  0  0
 24 25  2  0  0  0  0
 25 26  1  0  0  0  0
 26 27  2  0  0  0  0
M  END
> <DRUGBANK_ID>
DB07229

> <DRUG_GROUPS>
experimental

> <GENERIC_NAME>
3-{5-[AMINO(IMINIO)METHYL]-1H-INDOL-2-YL}-5-METHOXY-1,1'-BIPHENYL-2-OLATE

> <CHEMICAL_FORMULA>
C22H19N3O2

> <MOLECULAR_WEIGHT>
357.4052

> <EXACT_MASS>
357.147726867

> <IUPAC_NAME>
2-{5-[amino(iminiumyl)methyl]-1H-indol-2-yl}-4-methoxy-6-phenylbenzen-1-olate

> <IUPAC_TRADITIONAL_NAME>
2-{5-[amino(iminio)methyl]-1H-indol-2-yl}-4-methoxy-6-phenylbenzenolate

> <INCHI_IDENTIFIER>
InChI=1S/C22H19N3O2/c1-27-16-11-17(13-5-3-2-4-6-13)21(26)18(12-16)20-10-15-9-14(22(23)24)7-8-19(15)25-20/h2-12,25-26H,1H3,(H3,23,24)

> <INCHI_KEY>
InChIKey=MINVOLKUPZPDNX-UHFFFAOYSA-N

> <SMILES>
COC1=CC(=C([O-])C(=C1)C1=CC2=CC(=CC=C2N1)C(N)=[NH2+])C1=CC=CC=C1

> <JCHEM_ACCEPTOR_COUNT>
3

> <JCHEM_DONOR_COUNT>
3

> <JCHEM_ACIDIC_PKA>
9.35

> <JCHEM_BASIC_PKA>
11.22

> <JCHEM_PHYSIOLOGICAL_CHARGE>
1

> <ALOGPS_LOGP>
1.44

> <JCHEM_LOGP>
3.3

> <ALOGPS_LOGS>
-6.2

> <JCHEM_POLARIZABILITY>
40.34

> <JCHEM_POLAR_SURFACE_AREA>
99.69

> <JCHEM_REFRACTIVITY>
128.76

> <JCHEM_ROTATABLE_BOND_COUNT>
4

> <ALOGPS_SOLUBILITY>
2.78e-04 g/l __ 

$$$$
