A56
  Mrv0541 02241213212D          

 19 21  0  0  0  0            999 V2000
   -2.9482   -1.3830    0.0000 C    0  0  0  0  0  0  0  0  0  0  0  0
   -2.2337   -1.7955    0.0000 C    0  0  0  0  0  0  0  0  0  0  0  0
   -1.5192   -1.3830    0.0000 C    0  0  0  0  0  0  0  0  0  0  0  0
   -1.5192   -0.5580    0.0000 C    0  0  0  0  0  0  0  0  0  0  0  0
   -2.2337   -0.1455    0.0000 C    0  0  0  0  0  0  0  0  0  0  0  0
   -2.9482   -0.5580    0.0000 C    0  0  0  0  0  0  0  0  0  0  0  0
   -0.8048   -1.7955    0.0000 C    0  0  0  0  0  0  0  0  0  0  0  0
   -0.0903   -1.3830    0.0000 C    0  0  0  0  0  0  0  0  0  0  0  0
   -0.0903   -0.5580    0.0000 C    0  0  0  0  0  0  0  0  0  0  0  0
   -0.8048   -0.1455    0.0000 C    0  0  0  0  0  0  0  0  0  0  0  0
    0.6242   -1.7955    0.0000 Br   0  0  0  0  0  0  0  0  0  0  0  0
    0.6242   -0.1455    0.0000 C    0  0  0  0  0  0  0  0  0  0  0  0
    1.3386   -0.5580    0.0000 N    0  0  0  0  0  0  0  0  0  0  0  0
    2.0531   -0.1455    0.0000 C    0  0  0  0  0  0  0  0  0  0  0  0
    2.0531    0.6795    0.0000 N    0  0  0  0  0  0  0  0  0  0  0  0
    1.3386    1.0920    0.0000 C    0  0  0  0  0  0  0  0  0  0  0  0
    0.6242    0.6795    0.0000 N    0  0  0  0  0  0  0  0  0  0  0  0
    1.3386    1.9170    0.0000 N    0  0  0  0  0  0  0  0  0  0  0  0
    2.7676   -0.5580    0.0000 N    0  0  0  0  0  0  0  0  0  0  0  0
  1  6  2  0  0  0  0
  1  2  1  0  0  0  0
  2  3  2  0  0  0  0
  3  4  1  0  0  0  0
  3  7  1  0  0  0  0
  4 10  1  0  0  0  0
  4  5  2  0  0  0  0
  5  6  1  0  0  0  0
  7  8  2  0  0  0  0
  8  9  1  0  0  0  0
  8 11  1  0  0  0  0
  9 12  1  0  0  0  0
  9 10  2  0  0  0  0
 12 17  2  0  0  0  0
 12 13  1  0  0  0  0
 13 14  2  0  0  0  0
 14 15  1  0  0  0  0
 14 19  1  0  0  0  0
 15 16  2  0  0  0  0
 16 18  1  0  0  0  0
 16 17  1  0  0  0  0
M  END
> <DRUGBANK_ID>
DB07319

> <DRUG_GROUPS>
experimental

> <GENERIC_NAME>
6-(3-BROMO-2-NAPHTHYL)-1,3,5-TRIAZINE-2,4-DIAMINE

> <CHEMICAL_FORMULA>
C13H10BrN5

> <MOLECULAR_WEIGHT>
316.156

> <EXACT_MASS>
315.011957992

> <IUPAC_NAME>
6-(3-bromonaphthalen-2-yl)-1,3,5-triazine-2,4-diamine

> <IUPAC_TRADITIONAL_NAME>
6-(3-bromonaphthalen-2-yl)-1,3,5-triazine-2,4-diamine

> <INCHI_IDENTIFIER>
InChI=1S/C13H10BrN5/c14-10-6-8-4-2-1-3-7(8)5-9(10)11-17-12(15)19-13(16)18-11/h1-6H,(H4,15,16,17,18,19)

> <INCHI_KEY>
InChIKey=RXSSKAZHCZWJPP-UHFFFAOYSA-N

> <SMILES>
NC1=NC(=NC(N)=N1)C1=CC2=CC=CC=C2C=C1Br

> <JCHEM_ACCEPTOR_COUNT>
5

> <JCHEM_DONOR_COUNT>
2

> <JCHEM_ACIDIC_PKA>
15.59

> <JCHEM_BASIC_PKA>
5.43

> <JCHEM_PHYSIOLOGICAL_CHARGE>
0

> <ALOGPS_LOGP>
2.63

> <JCHEM_LOGP>
3.62

> <ALOGPS_LOGS>
-3.8

> <JCHEM_POLARIZABILITY>
28.53

> <JCHEM_POLAR_SURFACE_AREA>
90.71

> <JCHEM_REFRACTIVITY>
91.3

> <JCHEM_ROTATABLE_BOND_COUNT>
1

> <ALOGPS_SOLUBILITY>
5.64e-02 g/l __ 

$$$$
