79Z
  Mrv0541 02241213172D          

 31 34  0  0  0  0            999 V2000
    2.1861    1.2467    0.0000 C   0  0  0  0  0  0  0  0  0  0  0  0
    1.7736    0.5322    0.0000 C   0  0  0  0  0  0  0  0  0  0  0  0
    2.5986    0.5322    0.0000 C   0  0  0  0  0  0  0  0  0  0  0  0
   -2.4643   -0.2928    0.0000 C   0  0  0  0  0  0  0  0  0  0  0  0
   -2.8768    0.4217    0.0000 C   0  0  0  0  0  0  0  0  0  0  0  0
   -3.7018    0.4217    0.0000 C   0  0  0  0  0  0  0  0  0  0  0  0
   -4.1143   -0.2928    0.0000 C   0  0  0  0  0  0  0  0  0  0  0  0
   -3.7018   -1.0073    0.0000 C   0  0  0  0  0  0  0  0  0  0  0  0
   -2.8768   -1.0073    0.0000 C   0  0  0  0  0  0  0  0  0  0  0  0
    1.0592    0.1197    0.0000 C   0  0  0  0  0  0  0  0  0  0  0  0
    1.0592   -0.7053    0.0000 C   0  0  0  0  0  0  0  0  0  0  0  0
    0.3447   -1.1178    0.0000 C   0  0  0  0  0  0  0  0  0  0  0  0
    0.3447    0.5322    0.0000 C   0  0  0  0  0  0  0  0  0  0  0  0
   -0.3698    0.1197    0.0000 C   0  0  0  0  0  0  0  0  0  0  0  0
   -0.3698   -0.7053    0.0000 C   0  0  0  0  0  0  0  0  0  0  0  0
   -1.1544   -0.9602    0.0000 O   0  0  0  0  0  0  0  0  0  0  0  0
   -1.6393   -0.2928    0.0000 C   0  0  0  0  0  0  0  0  0  0  0  0
   -1.1544    0.3746    0.0000 C   0  0  0  0  0  0  0  0  0  0  0  0
   -1.4093    1.1593    0.0000 C   0  0  0  0  0  0  0  0  0  0  0  0
   -0.8573    1.7724    0.0000 O   0  0  0  0  0  0  0  0  0  0  0  0
   -2.2163    1.3308    0.0000 N   0  0  0  0  0  0  0  0  0  0  0  0
   -2.4712    2.1154    0.0000 C   0  0  0  0  0  0  0  0  0  0  0  0
    1.7736   -1.1178    0.0000 N   0  0  0  0  0  0  0  0  0  0  0  0
    1.7736   -1.9428    0.0000 S   0  0  0  0  0  0  0  0  0  0  0  0
    0.9486   -1.9428    0.0000 O   0  0  0  0  0  0  0  0  0  0  0  0
    1.7736   -2.7678    0.0000 O   0  0  0  0  0  0  0  0  0  0  0  0
    2.5986   -1.9428    0.0000 C   0  0  0  0  0  0  0  0  0  0  0  0
   -4.9393   -0.2928    0.0000 F   0  0  0  0  0  0  0  0  0  0  0  0
    2.4881   -0.7053    0.0000 C   0  0  0  0  0  0  0  0  0  0  0  0
    3.2026   -1.1178    0.0000 C   0  0  0  0  0  0  0  0  0  0  0  0
    3.9171   -0.7053    0.0000 O   0  0  0  0  0  0  0  0  0  0  0  0
  1  3  1  0  0  0  0
  1  2  1  0  0  0  0
  2 10  1  0  0  0  0
  3  2  1  0  0  0  0
  4  9  2  0  0  0  0
  5  6  2  0  0  0  0
  5  4  1  0  0  0  0
  6  7  1  0  0  0  0
  7 28  1  0  0  0  0
  7  8  2  0  0  0  0
  9  8  1  0  0  0  0
 10 11  2  0  0  0  0
 11 12  1  0  0  0  0
 11 23  1  0  0  0  0
 13 14  2  0  0  0  0
 13 10  1  0  0  0  0
 14 15  1  0  0  0  0
 15 16  1  0  0  0  0
 15 12  2  0  0  0  0
 17  4  1  0  0  0  0
 17 16  1  0  0  0  0
 18 14  1  0  0  0  0
 18 17  2  0  0  0  0
 19 18  1  0  0  0  0
 20 19  2  0  0  0  0
 21 19  1  0  0  0  0
 22 21  1  0  0  0  0
 23 24  1  0  0  0  0
 24 25  2  0  0  0  0
 24 27  1  0  0  0  0
 26 24  2  0  0  0  0
 29 23  1  0  0  0  0
 30 29  1  0  0  0  0
 31 30  1  0  0  0  0
M  END
> <DRUGBANK_ID>
DB07238

> <DRUG_GROUPS>
experimental

> <GENERIC_NAME>
5-cyclopropyl-2-(4-fluorophenyl)-6-[(2-hydroxyethyl)(methylsulfonyl)amino]-N-methyl-1-benzofuran-3-carboxamide

> <CHEMICAL_FORMULA>
C22H23FN2O5S

> <MOLECULAR_WEIGHT>
446.492

> <EXACT_MASS>
446.131170751

> <IUPAC_NAME>
5-cyclopropyl-2-(4-fluorophenyl)-6-[N-(2-hydroxyethyl)methanesulfonamido]-N-methyl-1-benzofuran-3-carboxamide

> <IUPAC_TRADITIONAL_NAME>
nesbuvir

> <INCHI_IDENTIFIER>
InChI=1S/C22H23FN2O5S/c1-24-22(27)20-17-11-16(13-3-4-13)18(25(9-10-26)31(2,28)29)12-19(17)30-21(20)14-5-7-15(23)8-6-14/h5-8,11-13,26H,3-4,9-10H2,1-2H3,(H,24,27)

> <INCHI_KEY>
InChIKey=WTDWVLJJJOTABN-UHFFFAOYSA-N

> <SMILES>
CNC(=O)C1=C(OC2=CC(N(CCO)S(C)(=O)=O)=C(C=C12)C1CC1)C1=CC=C(F)C=C1

> <JCHEM_ACCEPTOR_COUNT>
4

> <JCHEM_DONOR_COUNT>
2

> <JCHEM_ACIDIC_PKA>
15.34

> <JCHEM_BASIC_PKA>
-1.7

> <JCHEM_PHYSIOLOGICAL_CHARGE>
0

> <ALOGPS_LOGP>
2.34

> <JCHEM_LOGP>
1.6

> <ALOGPS_LOGS>
-3.9

> <JCHEM_POLARIZABILITY>
45.61

> <JCHEM_POLAR_SURFACE_AREA>
99.85

> <JCHEM_REFRACTIVITY>
114.37

> <JCHEM_ROTATABLE_BOND_COUNT>
6

> <ALOGPS_SOLUBILITY>
6.31e-02 g/l __ 

$$$$
