F83
  Mrv0541 02241213372D          

 24 26  0  0  0  0            999 V2000
   -2.7771   -1.6418    0.0000 O    0  0  0  0  0  0  0  0  0  0  0  0
   -2.7771   -0.8168    0.0000 C    0  0  0  0  0  0  0  0  0  0  0  0
   -2.0626   -0.4043    0.0000 C    0  0  2  0  0  0  0  0  0  0  0  0
   -2.0626    0.4207    0.0000 N    0  0  0  0  0  0  0  0  0  0  0  0
   -1.3482    0.8332    0.0000 C    0  0  0  0  0  0  0  0  0  0  0  0
   -0.6337    0.4207    0.0000 C    0  0  0  0  0  0  0  0  0  0  0  0
    0.0808    0.8332    0.0000 C    0  0  0  0  0  0  0  0  0  0  0  0
    0.7952    0.4207    0.0000 C    0  0  0  0  0  0  0  0  0  0  0  0
    0.7952   -0.4043    0.0000 C    0  0  0  0  0  0  0  0  0  0  0  0
    0.0808   -0.8168    0.0000 C    0  0  0  0  0  0  0  0  0  0  0  0
   -0.6337   -0.4043    0.0000 C    0  0  0  0  0  0  0  0  0  0  0  0
   -1.3482   -0.8168    0.0000 C    0  0  0  0  0  0  0  0  0  0  0  0
    1.5097    0.8332    0.0000 S    0  0  0  0  0  0  0  0  0  0  0  0
    1.9222    0.1187    0.0000 O    0  0  0  0  0  0  0  0  0  0  0  0
    1.0972    1.5477    0.0000 O    0  0  0  0  0  0  0  0  0  0  0  0
    2.2242    1.2457    0.0000 N    0  0  0  0  0  0  0  0  0  0  0  0
    2.9386    0.8332    0.0000 C    0  0  0  0  0  0  0  0  0  0  0  0
    3.6531    1.2457    0.0000 C    0  0  0  0  0  0  0  0  0  0  0  0
    4.3676    0.8332    0.0000 C    0  0  0  0  0  0  0  0  0  0  0  0
    4.3676    0.0082    0.0000 C    0  0  0  0  0  0  0  0  0  0  0  0
    3.6531   -0.4043    0.0000 C    0  0  0  0  0  0  0  0  0  0  0  0
    2.9386    0.0082    0.0000 C    0  0  0  0  0  0  0  0  0  0  0  0
    5.0821   -0.4043    0.0000 Cl   0  0  0  0  0  0  0  0  0  0  0  0
   -2.5683   -0.1123    0.0000 H    0  0  0  0  0  0  0  0  0  0  0  0
  1  2  1  0  0  0  0
  3  2  1  6  0  0  0
  3  4  1  0  0  0  0
  3 12  1  0  0  0  0
  3 24  1  1  0  0  0
  4  5  1  0  0  0  0
  5  6  1  0  0  0  0
  6  7  2  0  0  0  0
  6 11  1  0  0  0  0
  7  8  1  0  0  0  0
  8  9  2  0  0  0  0
  8 13  1  0  0  0  0
  9 10  1  0  0  0  0
 10 11  2  0  0  0  0
 11 12  1  0  0  0  0
 13 14  2  0  0  0  0
 13 15  2  0  0  0  0
 13 16  1  0  0  0  0
 16 17  1  0  0  0  0
 17 18  2  0  0  0  0
 17 22  1  0  0  0  0
 18 19  1  0  0  0  0
 19 20  2  0  0  0  0
 20 21  1  0  0  0  0
 20 23  1  0  0  0  0
 21 22  2  0  0  0  0
M  END
> <DRUGBANK_ID>
DB07747

> <DRUG_GROUPS>
experimental

> <GENERIC_NAME>
(3R)-N-(4-CHLOROPHENYL)-3-(HYDROXYMETHYL)-1,2,3,4-TETRAHYDROISOQUINOLINE-7-SULFONAMIDE

> <CHEMICAL_FORMULA>
C16H17ClN2O3S

> <MOLECULAR_WEIGHT>
352.836

> <EXACT_MASS>
352.064840817

> <IUPAC_NAME>
(3R)-N-(4-chlorophenyl)-3-(hydroxymethyl)-1,2,3,4-tetrahydroisoquinoline-7-sulfonamide

> <IUPAC_TRADITIONAL_NAME>
(3R)-N-(4-chlorophenyl)-3-(hydroxymethyl)-1,2,3,4-tetrahydroisoquinoline-7-sulfonamide

> <INCHI_IDENTIFIER>
InChI=1S/C16H17ClN2O3S/c17-13-2-4-14(5-3-13)19-23(21,22)16-6-1-11-7-15(10-20)18-9-12(11)8-16/h1-6,8,15,18-20H,7,9-10H2/t15-/m1/s1

> <INCHI_KEY>
InChIKey=YTBGBMPLINFTBQ-OAHLLOKOSA-N

> <SMILES>
[H][C@]1(CO)CC2=CC=C(C=C2CN1)S(=O)(=O)NC1=CC=C(Cl)C=C1

> <JCHEM_ACCEPTOR_COUNT>
4

> <JCHEM_DONOR_COUNT>
3

> <JCHEM_ACIDIC_PKA>
7.64

> <JCHEM_BASIC_PKA>
8.44

> <JCHEM_PHYSIOLOGICAL_CHARGE>
1

> <ALOGPS_LOGP>
1.22

> <JCHEM_LOGP>
1.39

> <ALOGPS_LOGS>
-3.7

> <JCHEM_POLARIZABILITY>
34.68

> <JCHEM_POLAR_SURFACE_AREA>
78.43

> <JCHEM_REFRACTIVITY>
90.22

> <JCHEM_ROTATABLE_BOND_COUNT>
3

> <ALOGPS_SOLUBILITY>
6.83e-02 g/l __ 

$$$$
