F9F
  Mrv0541 02241213372D          

 22 22  0  0  0  0            999 V2000
   -2.2914   -0.8599    0.0000 C   0  0  0  0  0  0  0  0  0  0  0  0
   -2.2914   -0.0349    0.0000 C   0  0  0  0  0  0  0  0  0  0  0  0
   -1.5770    0.3776    0.0000 C   0  0  0  0  0  0  0  0  0  0  0  0
   -0.8625   -0.0349    0.0000 C   0  0  0  0  0  0  0  0  0  0  0  0
   -0.8625   -0.8599    0.0000 C   0  0  0  0  0  0  0  0  0  0  0  0
   -1.5770   -1.2724    0.0000 C   0  0  0  0  0  0  0  0  0  0  0  0
   -3.0059   -1.2724    0.0000 O   0  0  0  0  0  0  0  0  0  0  0  0
   -3.0059   -2.0974    0.0000 C   0  0  0  0  0  0  0  0  0  0  0  0
   -3.0059   -2.9224    0.0000 F   0  0  0  0  0  0  0  0  0  0  0  0
   -2.1809   -2.0974    0.0000 F   0  0  0  0  0  0  0  0  0  0  0  0
   -3.8309   -2.0974    0.0000 F   0  0  0  0  0  0  0  0  0  0  0  0
   -0.1480    0.3776    0.0000 S   0  0  0  0  0  0  0  0  0  0  0  0
    0.5664    0.7901    0.0000 N   0  0  0  0  0  0  0  0  0  0  0  0
    1.2809    0.3776    0.0000 C   0  0  0  0  0  0  0  0  0  0  0  0
    1.9954    0.7901    0.0000 C   0  0  0  0  0  0  0  0  0  0  0  0
    2.7099    0.3776    0.0000 O   0  0  0  0  0  0  0  0  0  0  0  0
    3.4243    0.7901    0.0000 P   0  0  0  0  0  0  0  0  0  0  0  0
    4.1388    1.2026    0.0000 O   0  0  0  0  0  0  0  0  0  0  0  0
    3.8368    0.0757    0.0000 O   0  0  0  0  0  0  0  0  0  0  0  0
    3.0118    1.5046    0.0000 O   0  0  0  0  0  0  0  0  0  0  0  0
    0.2645   -0.3368    0.0000 O   0  0  0  0  0  0  0  0  0  0  0  0
   -0.5605    1.0921    0.0000 O   0  0  0  0  0  0  0  0  0  0  0  0
  1  2  1  0  0  0  0
  1  6  2  0  0  0  0
  1  7  1  0  0  0  0
  2  3  2  0  0  0  0
  3  4  1  0  0  0  0
  4  5  2  0  0  0  0
  4 12  1  0  0  0  0
  5  6  1  0  0  0  0
  7  8  1  0  0  0  0
  8  9  1  0  0  0  0
  8 10  1  0  0  0  0
  8 11  1  0  0  0  0
 12 13  1  0  0  0  0
 12 21  2  0  0  0  0
 12 22  2  0  0  0  0
 13 14  1  0  0  0  0
 14 15  1  0  0  0  0
 15 16  1  0  0  0  0
 16 17  1  0  0  0  0
 17 18  1  0  0  0  0
 17 19  2  0  0  0  0
 17 20  1  0  0  0  0
M  END
> <DRUGBANK_ID>
DB07748

> <DRUG_GROUPS>
experimental

> <GENERIC_NAME>
2-({[4-(TRIFLUOROMETHOXY)PHENYL]SULFONYL}AMINO)ETHYL DIHYDROGEN PHOSPHATE

> <CHEMICAL_FORMULA>
C9H11F3NO7PS

> <MOLECULAR_WEIGHT>
365.22

> <EXACT_MASS>
364.994593528

> <IUPAC_NAME>
(2-{[4-(trifluoromethoxy)benzene]sulfonamido}ethoxy)phosphonic acid

> <IUPAC_TRADITIONAL_NAME>
2-[4-(trifluoromethoxy)benzenesulfonamido]ethoxyphosphonic acid

> <INCHI_IDENTIFIER>
InChI=1S/C9H11F3NO7PS/c10-9(11,12)20-7-1-3-8(4-2-7)22(17,18)13-5-6-19-21(14,15)16/h1-4,13H,5-6H2,(H2,14,15,16)

> <INCHI_KEY>
InChIKey=JDDKDMFCTOZVCJ-UHFFFAOYSA-N

> <SMILES>
OP(O)(=O)OCCNS(=O)(=O)C1=CC=C(OC(F)(F)F)C=C1

> <JCHEM_ACCEPTOR_COUNT>
6

> <JCHEM_DONOR_COUNT>
3

> <JCHEM_ACIDIC_PKA>
1.5

> <JCHEM_BASIC_PKA>
-5.3

> <JCHEM_PHYSIOLOGICAL_CHARGE>
-2

> <ALOGPS_LOGP>
0.77

> <JCHEM_LOGP>
1.42

> <ALOGPS_LOGS>
-2

> <JCHEM_POLARIZABILITY>
27.83

> <JCHEM_POLAR_SURFACE_AREA>
122.16

> <JCHEM_REFRACTIVITY>
63.35

> <JCHEM_ROTATABLE_BOND_COUNT>
7

> <ALOGPS_SOLUBILITY>
3.45e+00 g/l __ 

$$$$
