529
  Mrv0541 02241213132D          

 26 29  0  0  0  0            999 V2000
   -0.5305    3.0054    0.0000 N   0  0  0  0  0  0  0  0  0  0  0  0
   -1.3375    3.1770    0.0000 C   0  0  0  0  0  0  0  0  0  0  0  0
   -1.4237    3.9975    0.0000 C   0  0  0  0  0  0  0  0  0  0  0  0
   -0.6700    4.3330    0.0000 N   0  0  0  0  0  0  0  0  0  0  0  0
   -0.1180    3.7199    0.0000 C   0  0  0  0  0  0  0  0  0  0  0  0
   -0.9025   -2.8824    0.0000 N   0  0  0  0  0  0  0  0  0  0  0  0
   -0.6476   -2.0978    0.0000 N   0  0  0  0  0  0  0  0  0  0  0  0
    0.1774   -2.0978    0.0000 C   0  0  0  0  0  0  0  0  0  0  0  0
    0.4324   -2.8824    0.0000 C   0  0  0  0  0  0  0  0  0  0  0  0
   -0.2351   -3.3674    0.0000 C   0  0  0  0  0  0  0  0  0  0  0  0
   -0.2351   -4.1924    0.0000 C   0  0  0  0  0  0  0  0  0  0  0  0
    0.1774   -4.9068    0.0000 C   0  0  0  0  0  0  0  0  0  0  0  0
   -0.6476   -4.9068    0.0000 C   0  0  0  0  0  0  0  0  0  0  0  0
    0.6624   -1.4304    0.0000 N   0  0  0  0  0  0  0  0  0  0  0  0
    0.3268   -0.6767    0.0000 C   0  0  0  0  0  0  0  0  0  0  0  0
    0.8117   -0.0093    0.0000 C   0  0  2  0  0  0  0  0  0  0  0  0
   -0.4937   -0.5905    0.0000 O   0  0  0  0  0  0  0  0  0  0  0  0
    0.4762    0.7444    0.0000 C   0  0  0  0  0  0  0  0  0  0  0  0
   -0.3443    0.8307    0.0000 C   0  0  0  0  0  0  0  0  0  0  0  0
   -0.6799    1.5843    0.0000 C   0  0  0  0  0  0  0  0  0  0  0  0
   -0.1949    2.2518    0.0000 C   0  0  0  0  0  0  0  0  0  0  0  0
    0.6255    2.1655    0.0000 C   0  0  0  0  0  0  0  0  0  0  0  0
    0.9611    1.4119    0.0000 C   0  0  0  0  0  0  0  0  0  0  0  0
    0.7025    3.8062    0.0000 O   0  0  0  0  0  0  0  0  0  0  0  0
    1.6322   -0.0955    0.0000 C   0  0  0  0  0  0  0  0  0  0  0  0
    0.2310    0.0518    0.0000 H   0  0  0  0  0  0  0  0  0  0  0  0
  1  2  1  0  0  0  0
  1  5  1  0  0  0  0
  1 21  1  0  0  0  0
  2  3  1  0  0  0  0
  3  4  1  0  0  0  0
  4  5  1  0  0  0  0
  5 24  2  0  0  0  0
  6  7  2  0  0  0  0
  6 10  1  0  0  0  0
  7  8  1  0  0  0  0
  8  9  1  0  0  0  0
  8 14  2  0  0  0  0
  9 10  2  0  0  0  0
 10 11  1  0  0  0  0
 11 12  1  0  0  0  0
 11 13  1  0  0  0  0
 12 13  1  0  0  0  0
 14 15  1  0  0  0  0
 15 16  1  0  0  0  0
 15 17  2  0  0  0  0
 16 18  1  0  0  0  0
 16 25  1  1  0  0  0
 16 26  1  1  0  0  0
 18 19  2  0  0  0  0
 18 23  1  0  0  0  0
 19 20  1  0  0  0  0
 20 21  2  0  0  0  0
 21 22  1  0  0  0  0
 22 23  2  0  0  0  0
M  END
> <DRUGBANK_ID>
DB07137

> <DRUG_GROUPS>
experimental

> <GENERIC_NAME>
(2S)-N-[(3Z)-5-CYCLOPROPYL-3H-PYRAZOL-3-YLIDENE]-2-[4-(2-OXOIMIDAZOLIDIN-1-YL)PHENYL]PROPANAMIDE

> <CHEMICAL_FORMULA>
C18H19N5O2

> <MOLECULAR_WEIGHT>
337.3758

> <EXACT_MASS>
337.153874877

> <IUPAC_NAME>
(2S)-N-[(3Z)-5-cyclopropyl-3H-pyrazol-3-ylidene]-2-[4-(2-oxoimidazolidin-1-yl)phenyl]propanamide

> <IUPAC_TRADITIONAL_NAME>
(2S)-N-[(3Z)-5-cyclopropylpyrazol-3-ylidene]-2-[4-(2-oxoimidazolidin-1-yl)phenyl]propanamide

> <INCHI_IDENTIFIER>
InChI=1S/C18H19N5O2/c1-11(17(24)20-16-10-15(21-22-16)13-2-3-13)12-4-6-14(7-5-12)23-9-8-19-18(23)25/h4-7,10-11,13H,2-3,8-9H2,1H3,(H,19,25)/b20-16-/t11-/m0/s1

> <INCHI_KEY>
InChIKey=JPAWNIKVRIVDBT-PORMKJMCSA-N

> <SMILES>
O=C(\N=C1/N=NC(=C1)C1CC1)[C@](C)([H])C1=CC=C(C=C1)N1CCNC1=O

> <JCHEM_ACCEPTOR_COUNT>
5

> <JCHEM_DONOR_COUNT>
1

> <JCHEM_ACIDIC_PKA>
15.08

> <JCHEM_BASIC_PKA>
-3.2

> <JCHEM_PHYSIOLOGICAL_CHARGE>
0

> <ALOGPS_LOGP>
2.24

> <JCHEM_LOGP>
0.97

> <ALOGPS_LOGS>
-3.5

> <JCHEM_POLARIZABILITY>
36.09

> <JCHEM_POLAR_SURFACE_AREA>
86.49

> <JCHEM_REFRACTIVITY>
93.14

> <JCHEM_ROTATABLE_BOND_COUNT>
4

> <ALOGPS_SOLUBILITY>
1.11e-01 g/l __ 

$$$$
