A51
  Mrv0541 02241213212D          

 14 15  0  0  0  0            999 V2000
   -1.6450    1.8097    0.0000 C   0  0  0  0  0  0  0  0  0  0  0  0
   -0.9776    1.3248    0.0000 C   0  0  0  0  0  0  0  0  0  0  0  0
   -1.2325    0.5402    0.0000 C   0  0  0  0  0  0  0  0  0  0  0  0
   -2.0575    0.5402    0.0000 C   0  0  0  0  0  0  0  0  0  0  0  0
   -2.3125    1.3248    0.0000 O   0  0  0  0  0  0  0  0  0  0  0  0
   -2.5425   -0.1273    0.0000 O   0  0  0  0  0  0  0  0  0  0  0  0
   -0.7476   -0.1273    0.0000 C   0  0  0  0  0  0  0  0  0  0  0  0
    0.0729   -0.0410    0.0000 N   0  0  0  0  0  0  0  0  0  0  0  0
    0.5578   -0.7085    0.0000 C   0  0  0  0  0  0  0  0  0  0  0  0
    1.3783   -0.6222    0.0000 C   0  0  0  0  0  0  0  0  0  0  0  0
    1.8632   -1.2897    0.0000 C   0  0  0  0  0  0  0  0  0  0  0  0
    1.5276   -2.0433    0.0000 C   0  0  0  0  0  0  0  0  0  0  0  0
    0.7072   -2.1296    0.0000 C   0  0  0  0  0  0  0  0  0  0  0  0
    0.2222   -1.4621    0.0000 C   0  0  0  0  0  0  0  0  0  0  0  0
  1  2  1  0  0  0  0
  1  5  1  0  0  0  0
  2  3  1  0  0  0  0
  3  4  1  0  0  0  0
  3  7  2  0  0  0  0
  4  5  1  0  0  0  0
  4  6  2  0  0  0  0
  7  8  1  0  0  0  0
  8  9  1  0  0  0  0
  9 10  2  0  0  0  0
  9 14  1  0  0  0  0
 10 11  1  0  0  0  0
 11 12  2  0  0  0  0
 12 13  1  0  0  0  0
 13 14  2  0  0  0  0
M  END
> <DRUGBANK_ID>
DB07317

> <DRUG_GROUPS>
experimental

> <GENERIC_NAME>
(3E)-3-[(phenylamino)methylidene]dihydrofuran-2(3H)-one

> <CHEMICAL_FORMULA>
C11H11NO2

> <MOLECULAR_WEIGHT>
189.2105

> <EXACT_MASS>
189.078978601

> <IUPAC_NAME>
(3E)-3-[(phenylamino)methylidene]oxolan-2-one

> <IUPAC_TRADITIONAL_NAME>
(3E)-3-[(phenylamino)methylidene]oxolan-2-one

> <INCHI_IDENTIFIER>
InChI=1S/C11H11NO2/c13-11-9(6-7-14-11)8-12-10-4-2-1-3-5-10/h1-5,8,12H,6-7H2/b9-8+

> <INCHI_KEY>
InChIKey=BKXNPYSVWOVZGX-CMDGGOBGSA-N

> <SMILES>
O=C1OCC\C1=C/NC1=CC=CC=C1

> <JCHEM_ACCEPTOR_COUNT>
2

> <JCHEM_DONOR_COUNT>
1

> <JCHEM_ACIDIC_PKA>
15.65

> <JCHEM_BASIC_PKA>
-0.84

> <JCHEM_PHYSIOLOGICAL_CHARGE>
0

> <ALOGPS_LOGP>
1.54

> <JCHEM_LOGP>
1.68

> <ALOGPS_LOGS>
-2.1

> <JCHEM_POLARIZABILITY>
19.94

> <JCHEM_POLAR_SURFACE_AREA>
38.33

> <JCHEM_REFRACTIVITY>
54.65

> <JCHEM_ROTATABLE_BOND_COUNT>
2

> <ALOGPS_SOLUBILITY>
1.35e+00 g/l __ 

$$$$
