IFA
  Mrv0541 02241213462D          

 25 26  0  0  0  0            999 V2000
   -2.1909   -0.6187    0.0000 F   0  0  0  0  0  0  0  0  0  0  0  0
   -2.1909    0.2063    0.0000 C   0  0  0  0  0  0  0  0  0  0  0  0
   -2.9054    0.6188    0.0000 C   0  0  0  0  0  0  0  0  0  0  0  0
   -2.9054    1.4438    0.0000 C   0  0  0  0  0  0  0  0  0  0  0  0
   -3.6199    1.8563    0.0000 F   0  0  0  0  0  0  0  0  0  0  0  0
   -2.1909    1.8563    0.0000 C   0  0  0  0  0  0  0  0  0  0  0  0
   -1.4765    1.4438    0.0000 C   0  0  0  0  0  0  0  0  0  0  0  0
   -1.4765    0.6188    0.0000 C   0  0  0  0  0  0  0  0  0  0  0  0
   -0.7620    0.2063    0.0000 C   0  0  0  0  0  0  0  0  0  0  0  0
   -0.0475    0.6188    0.0000 C   0  0  0  0  0  0  0  0  0  0  0  0
   -0.7620   -0.6187    0.0000 C   0  0  0  0  0  0  0  0  0  0  0  0
   -0.0475   -1.0312    0.0000 C   0  0  0  0  0  0  0  0  0  0  0  0
   -0.0475   -1.8562    0.0000 I   0  0  0  0  0  0  0  0  0  0  0  0
    0.6669   -0.6187    0.0000 C   0  0  0  0  0  0  0  0  0  0  0  0
    1.3814   -1.0312    0.0000 O   0  0  0  0  0  0  0  0  0  0  0  0
    0.6669    0.2063    0.0000 C   0  0  0  0  0  0  0  0  0  0  0  0
    1.3814    0.6188    0.0000 C   0  0  0  0  0  0  0  0  0  0  0  0
    1.3814    1.4438    0.0000 O   0  0  0  0  0  0  0  0  0  0  0  0
    2.0959    0.2063    0.0000 N   0  0  0  0  0  0  0  0  0  0  0  0
    2.8104    0.6188    0.0000 C   0  0  0  0  0  0  0  0  0  0  0  0
    3.5248    0.2063    0.0000 C   0  0  0  0  0  0  0  0  0  0  0  0
    4.2393    0.6188    0.0000 C   0  0  0  0  0  0  0  0  0  0  0  0
    4.2393    1.4438    0.0000 O   0  0  0  0  0  0  0  0  0  0  0  0
    4.9538    0.2063    0.0000 O   0  0  0  0  0  0  0  0  0  0  0  0
    5.6682    0.6188    0.0000 C   0  0  0  0  0  0  0  0  0  0  0  0
  1  2  1  0  0  0  0
  2  3  1  0  0  0  0
  2  8  2  0  0  0  0
  3  4  2  0  0  0  0
  4  5  1  0  0  0  0
  4  6  1  0  0  0  0
  6  7  2  0  0  0  0
  7  8  1  0  0  0  0
  8  9  1  0  0  0  0
  9 10  2  0  0  0  0
  9 11  1  0  0  0  0
 10 16  1  0  0  0  0
 11 12  2  0  0  0  0
 12 13  1  0  0  0  0
 12 14  1  0  0  0  0
 14 16  2  0  0  0  0
 14 15  1  0  0  0  0
 16 17  1  0  0  0  0
 17 18  2  0  0  0  0
 17 19  1  0  0  0  0
 19 20  1  0  0  0  0
 20 21  1  0  0  0  0
 21 22  1  0  0  0  0
 22 24  1  0  0  0  0
 22 23  2  0  0  0  0
 24 25  1  0  0  0  0
M  END
> <DRUGBANK_ID>
DB07962

> <DRUG_GROUPS>
experimental

> <GENERIC_NAME>
METHYL N-[(2',4'-DIFLUORO-4-HYDROXY-5-IODOBIPHENYL-3-YL)CARBONYL]-BETA-ALANINATE

> <CHEMICAL_FORMULA>
C17H14F2INO4

> <MOLECULAR_WEIGHT>
461.1986

> <EXACT_MASS>
460.993557771

> <IUPAC_NAME>
methyl 3-{[5-(2,4-difluorophenyl)-2-hydroxy-3-iodophenyl]formamido}propanoate

> <IUPAC_TRADITIONAL_NAME>
methyl 3-{[5-(2,4-difluorophenyl)-2-hydroxy-3-iodophenyl]formamido}propanoate

> <INCHI_IDENTIFIER>
InChI=1S/C17H14F2INO4/c1-25-15(22)4-5-21-17(24)12-6-9(7-14(20)16(12)23)11-3-2-10(18)8-13(11)19/h2-3,6-8,23H,4-5H2,1H3,(H,21,24)

> <INCHI_KEY>
InChIKey=ZMRRBWRMQPQQAN-UHFFFAOYSA-N

> <SMILES>
COC(=O)CCNC(=O)C1=C(O)C(I)=CC(=C1)C1=C(F)C=C(F)C=C1

> <JCHEM_ACCEPTOR_COUNT>
3

> <JCHEM_DONOR_COUNT>
2

> <JCHEM_ACIDIC_PKA>
6.83

> <JCHEM_BASIC_PKA>
-1.5

> <JCHEM_PHYSIOLOGICAL_CHARGE>
-1

> <ALOGPS_LOGP>
3.39

> <JCHEM_LOGP>
4.12

> <ALOGPS_LOGS>
-4.6

> <JCHEM_POLARIZABILITY>
38.03

> <JCHEM_POLAR_SURFACE_AREA>
75.63

> <JCHEM_REFRACTIVITY>
96.5

> <JCHEM_ROTATABLE_BOND_COUNT>
6

> <ALOGPS_SOLUBILITY>
1.10e-02 g/l __ 

$$$$
