BRQ
  Mrv0541 02241213272D          

 23 25  0  0  0  0            999 V2000
   -1.3662    1.6990    0.0000 C    0  0  0  0  0  0  0  0  0  0  0  0
   -2.0807    2.1115    0.0000 C    0  0  0  0  0  0  0  0  0  0  0  0
   -2.7952    1.6990    0.0000 Cl   0  0  0  0  0  0  0  0  0  0  0  0
   -2.0807    2.9365    0.0000 C    0  0  0  0  0  0  0  0  0  0  0  0
   -1.3662    3.3490    0.0000 C    0  0  0  0  0  0  0  0  0  0  0  0
   -0.6518    2.9365    0.0000 C    0  0  0  0  0  0  0  0  0  0  0  0
   -0.6518    2.1115    0.0000 C    0  0  0  0  0  0  0  0  0  0  0  0
    0.0627    1.6990    0.0000 N    0  0  0  0  0  0  0  0  0  0  0  0
    0.0627    0.8740    0.0000 C    0  0  0  0  0  0  0  0  0  0  0  0
    0.7301    0.3891    0.0000 S    0  0  0  0  0  0  0  0  0  0  0  0
   -0.6047    0.3891    0.0000 N    0  3  0  0  0  0  0  0  0  0  0  0
   -0.3498   -0.3955    0.0000 C    0  0  0  0  0  0  0  0  0  0  0  0
   -0.8347   -1.0630    0.0000 N    0  0  0  0  0  0  0  0  0  0  0  0
    0.4752   -0.3955    0.0000 C    0  0  0  0  0  0  0  0  0  0  0  0
    0.9601   -1.0630    0.0000 C    0  0  0  0  0  0  0  0  0  0  0  0
    1.7806   -0.9767    0.0000 O    0  0  0  0  0  0  0  0  0  0  0  0
    0.6246   -1.8166    0.0000 C    0  0  0  0  0  0  0  0  0  0  0  0
    1.1095   -2.4841    0.0000 C    0  0  0  0  0  0  0  0  0  0  0  0
    0.7739   -3.2378    0.0000 C    0  0  0  0  0  0  0  0  0  0  0  0
   -0.0466   -3.3240    0.0000 C    0  0  0  0  0  0  0  0  0  0  0  0
   -0.3821   -4.0777    0.0000 F    0  0  0  0  0  0  0  0  0  0  0  0
   -0.5315   -2.6566    0.0000 C    0  0  0  0  0  0  0  0  0  0  0  0
   -0.1959   -1.9029    0.0000 C    0  0  0  0  0  0  0  0  0  0  0  0
  1  2  1  0  0  0  0
  1  7  2  0  0  0  0
  2  3  1  0  0  0  0
  2  4  2  0  0  0  0
  4  5  1  0  0  0  0
  5  6  2  0  0  0  0
  6  7  1  0  0  0  0
  7  8  1  0  0  0  0
  8  9  1  0  0  0  0
  9 10  1  0  0  0  0
  9 11  2  0  0  0  0
 10 14  1  0  0  0  0
 11 12  1  0  0  0  0
 12 13  1  0  0  0  0
 12 14  2  0  0  0  0
 14 15  1  0  0  0  0
 15 16  2  0  0  0  0
 15 17  1  0  0  0  0
 17 18  1  0  0  0  0
 17 23  2  0  0  0  0
 18 19  2  0  0  0  0
 19 20  1  0  0  0  0
 20 21  1  0  0  0  0
 20 22  2  0  0  0  0
 22 23  1  0  0  0  0
M  END
> <DRUGBANK_ID>
DB07489

> <DRUG_GROUPS>
experimental

> <GENERIC_NAME>
{[4-AMINO-2-(3-CHLOROANILINO)-1,3-THIAZOL-5-YL](4-FLUOROPHENYL)METHANONE

> <CHEMICAL_FORMULA>
C16H12ClFN3OS

> <MOLECULAR_WEIGHT>
348.802

> <EXACT_MASS>
348.037363623

> <IUPAC_NAME>
4-amino-2-[(3-chlorophenyl)amino]-5-[(4-fluorophenyl)carbonyl]-1,3-thiazol-3-ium

> <IUPAC_TRADITIONAL_NAME>
4-amino-2-[(3-chlorophenyl)amino]-5-[(4-fluorophenyl)carbonyl]-1,3-thiazol-3-ium

> <INCHI_IDENTIFIER>
InChI=1S/C16H11ClFN3OS/c17-10-2-1-3-12(8-10)20-16-21-15(19)14(23-16)13(22)9-4-6-11(18)7-5-9/h1-8H,19H2,(H,20,21)/p+1

> <INCHI_KEY>
InChIKey=WWGPTHOMFHDEEC-UHFFFAOYSA-O

> <SMILES>
NC1=C(SC(NC2=CC(Cl)=CC=C2)=[NH+]1)C(=O)C1=CC=C(F)C=C1

> <JCHEM_ACCEPTOR_COUNT>
3

> <JCHEM_DONOR_COUNT>
3

> <JCHEM_ACIDIC_PKA>
12.12

> <JCHEM_BASIC_PKA>
1.92

> <JCHEM_PHYSIOLOGICAL_CHARGE>
0

> <ALOGPS_LOGP>
1.87

> <JCHEM_LOGP>
5.51

> <ALOGPS_LOGS>
-5.8

> <JCHEM_POLARIZABILITY>
34.34

> <JCHEM_POLAR_SURFACE_AREA>
69.26

> <JCHEM_REFRACTIVITY>
99.5

> <JCHEM_ROTATABLE_BOND_COUNT>
4

> <ALOGPS_SOLUBILITY>
6.74e-04 g/l __ 

$$$$
