7X2
  Mrv0541 02241213182D          

 30 33  0  0  0  0            999 V2000
    6.8881   -0.3960    0.0000 C    0  0  0  0  0  0  0  0  0  0  0  0
    6.1736    0.0165    0.0000 O    0  0  0  0  0  0  0  0  0  0  0  0
    6.1736    0.8415    0.0000 C    0  0  0  0  0  0  0  0  0  0  0  0
    5.4591    1.2540    0.0000 C    0  0  0  0  0  0  0  0  0  0  0  0
    5.4591    2.0790    0.0000 C    0  0  0  0  0  0  0  0  0  0  0  0
    4.7447    2.4915    0.0000 N    0  0  0  0  0  0  0  0  0  0  0  0
    4.7447    3.3165    0.0000 C    0  0  0  0  0  0  0  0  0  0  0  0
    4.0302    3.7290    0.0000 N    0  0  0  0  0  0  0  0  0  0  0  0
    4.0302    4.5540    0.0000 C    0  0  0  0  0  0  0  0  0  0  0  0
    4.7447    4.9665    0.0000 C    0  0  0  0  0  0  0  0  0  0  0  0
    5.4591    4.5540    0.0000 C    0  0  0  0  0  0  0  0  0  0  0  0
    6.1736    4.9665    0.0000 N    0  0  0  0  0  0  0  0  0  0  0  0
    6.1736    5.7915    0.0000 C    0  0  0  0  0  0  0  0  0  0  0  0
    5.4591    6.2040    0.0000 C    0  0  0  0  0  0  0  0  0  0  0  0
    4.6745    5.9491    0.0000 O    0  0  0  0  0  0  0  0  0  0  0  0
    4.1896    6.6165    0.0000 C    0  0  0  0  0  0  0  0  0  0  0  0
    4.6745    7.2839    0.0000 O    0  0  0  0  0  0  0  0  0  0  0  0
    5.4591    7.0290    0.0000 C    0  0  0  0  0  0  0  0  0  0  0  0
    6.1736    7.4415    0.0000 C    0  0  0  0  0  0  0  0  0  0  0  0
    6.8881    7.0290    0.0000 C    0  0  0  0  0  0  0  0  0  0  0  0
    6.8881    6.2040    0.0000 C    0  0  0  0  0  0  0  0  0  0  0  0
    7.6026    5.7915    0.0000 Cl   0  0  0  0  0  0  0  0  0  0  0  0
    5.4591    3.7290    0.0000 N    0  0  0  0  0  0  0  0  0  0  0  0
    6.1736    2.4915    0.0000 C    0  0  0  0  0  0  0  0  0  0  0  0
    6.8881    2.0790    0.0000 C    0  0  0  0  0  0  0  0  0  0  0  0
    7.6026    2.4915    0.0000 O    0  0  0  0  0  0  0  0  0  0  0  0
    8.3170    2.0790    0.0000 C    0  0  0  0  0  0  0  0  0  0  0  0
    6.8881    1.2540    0.0000 C    0  0  0  0  0  0  0  0  0  0  0  0
    7.6026    0.8415    0.0000 O    0  0  0  0  0  0  0  0  0  0  0  0
    8.3170    1.2540    0.0000 C    0  0  0  0  0  0  0  0  0  0  0  0
  1  2  1  0  0  0  0
  2  3  1  0  0  0  0
  3  4  1  0  0  0  0
  3 28  2  0  0  0  0
  4  5  2  0  0  0  0
  5  6  1  0  0  0  0
  5 24  1  0  0  0  0
  6  7  1  0  0  0  0
  7  8  1  0  0  0  0
  7 23  2  0  0  0  0
  8  9  2  0  0  0  0
  9 10  1  0  0  0  0
 10 11  2  0  0  0  0
 11 12  1  0  0  0  0
 11 23  1  0  0  0  0
 12 13  1  0  0  0  0
 13 14  1  0  0  0  0
 13 21  2  0  0  0  0
 14 15  1  0  0  0  0
 14 18  2  0  0  0  0
 15 16  1  0  0  0  0
 16 17  1  0  0  0  0
 17 18  1  0  0  0  0
 18 19  1  0  0  0  0
 19 20  2  0  0  0  0
 20 21  1  0  0  0  0
 21 22  1  0  0  0  0
 24 25  2  0  0  0  0
 25 26  1  0  0  0  0
 25 28  1  0  0  0  0
 26 27  1  0  0  0  0
 28 29  1  0  0  0  0
 29 30  1  0  0  0  0
M  END
> <DRUGBANK_ID>
DB07250

> <DRUG_GROUPS>
experimental

> <GENERIC_NAME>
N'-(5-CHLORO-1,3-BENZODIOXOL-4-YL)-N-(3,4,5- TRIMETHOXYPHENYL)PYRIMIDINE-2,4-DIAMINE

> <CHEMICAL_FORMULA>
C20H19ClN4O5

> <MOLECULAR_WEIGHT>
430.842

> <EXACT_MASS>
430.104397445

> <IUPAC_NAME>
4-N-(5-chloro-2H-1,3-benzodioxol-4-yl)-2-N-(3,4,5-trimethoxyphenyl)pyrimidine-2,4-diamine

> <IUPAC_TRADITIONAL_NAME>
4-N-(5-chloro-2H-1,3-benzodioxol-4-yl)-2-N-(3,4,5-trimethoxyphenyl)pyrimidine-2,4-diamine

> <INCHI_IDENTIFIER>
InChI=1S/C20H19ClN4O5/c1-26-14-8-11(9-15(27-2)18(14)28-3)23-20-22-7-6-16(25-20)24-17-12(21)4-5-13-19(17)30-10-29-13/h4-9H,10H2,1-3H3,(H2,22,23,24,25)

> <INCHI_KEY>
InChIKey=HMKLUOPMOJOUDZ-UHFFFAOYSA-N

> <SMILES>
COC1=CC(NC2=NC(NC3=C(Cl)C=CC4=C3OCO4)=CC=N2)=CC(OC)=C1OC

> <JCHEM_ACCEPTOR_COUNT>
9

> <JCHEM_DONOR_COUNT>
2

> <JCHEM_ACIDIC_PKA>
12.63

> <JCHEM_BASIC_PKA>
5.03

> <JCHEM_PHYSIOLOGICAL_CHARGE>
0

> <ALOGPS_LOGP>
4.45

> <JCHEM_LOGP>
3.96

> <ALOGPS_LOGS>
-3.9

> <JCHEM_POLARIZABILITY>
42.34

> <JCHEM_POLAR_SURFACE_AREA>
95.99

> <JCHEM_REFRACTIVITY>
109.92

> <JCHEM_ROTATABLE_BOND_COUNT>
7

> <ALOGPS_SOLUBILITY>
5.29e-02 g/l __ 

$$$$
