H1L
  Mrv0541 02241213422D          

 25 26  0  0  0  0            999 V2000
   -0.2736    3.5392    0.0000 O    0  0  0  0  0  0  0  0  0  0  0  0
    0.4409    3.1267    0.0000 C    0  0  0  0  0  0  0  0  0  0  0  0
    1.1554    3.5392    0.0000 O    0  0  0  0  0  0  0  0  0  0  0  0
    0.4409    2.3017    0.0000 C    0  0  1  0  0  0  0  0  0  0  0  0
   -0.2736    1.8892    0.0000 C    0  0  0  0  0  0  0  0  0  0  0  0
    1.1554    1.8892    0.0000 O    0  0  0  0  0  0  0  0  0  0  0  0
    1.1554    1.0642    0.0000 C    0  0  0  0  0  0  0  0  0  0  0  0
    1.8698    0.6517    0.0000 C    0  0  0  0  0  0  0  0  0  0  0  0
    1.8698   -0.1733    0.0000 C    0  0  0  0  0  0  0  0  0  0  0  0
    0.4409    0.6517    0.0000 C    0  0  0  0  0  0  0  0  0  0  0  0
    0.4409   -0.1733    0.0000 C    0  0  0  0  0  0  0  0  0  0  0  0
    1.1554   -0.5858    0.0000 C    0  0  0  0  0  0  0  0  0  0  0  0
    1.1554   -1.4108    0.0000 O    0  0  0  0  0  0  0  0  0  0  0  0
    0.4409   -1.8233    0.0000 C    0  0  0  0  0  0  0  0  0  0  0  0
    0.4409   -2.6483    0.0000 N    0  0  0  0  0  0  0  0  0  0  0  0
   -0.2736   -3.0608    0.0000 C    0  0  0  0  0  0  0  0  0  0  0  0
   -0.9880   -2.6483    0.0000 C    0  0  0  0  0  0  0  0  0  0  0  0
   -1.7025   -3.0608    0.0000 C    0  0  0  0  0  0  0  0  0  0  0  0
   -2.4170   -3.4733    0.0000 F    0  0  0  0  0  0  0  0  0  0  0  0
   -2.1150   -2.3463    0.0000 F    0  0  0  0  0  0  0  0  0  0  0  0
   -1.2900   -3.7752    0.0000 F    0  0  0  0  0  0  0  0  0  0  0  0
   -0.9880   -1.8233    0.0000 C    0  0  0  0  0  0  0  0  0  0  0  0
   -0.2736   -1.4108    0.0000 C    0  0  0  0  0  0  0  0  0  0  0  0
   -0.2736   -0.5858    0.0000 Cl   0  0  0  0  0  0  0  0  0  0  0  0
   -0.0648    2.5937    0.0000 H    0  0  0  0  0  0  0  0  0  0  0  0
  1  2  1  0  0  0  0
  2  3  2  0  0  0  0
  2  4  1  0  0  0  0
  4  5  1  6  0  0  0
  4  6  1  0  0  0  0
  4 25  1  1  0  0  0
  6  7  1  0  0  0  0
  7  8  2  0  0  0  0
  7 10  1  0  0  0  0
  8  9  1  0  0  0  0
  9 12  2  0  0  0  0
 10 11  2  0  0  0  0
 11 12  1  0  0  0  0
 12 13  1  0  0  0  0
 13 14  1  0  0  0  0
 14 15  2  0  0  0  0
 14 23  1  0  0  0  0
 15 16  1  0  0  0  0
 16 17  2  0  0  0  0
 17 18  1  0  0  0  0
 17 22  1  0  0  0  0
 18 19  1  0  0  0  0
 18 20  1  0  0  0  0
 18 21  1  0  0  0  0
 22 23  2  0  0  0  0
 23 24  1  0  0  0  0
M  END
> <DRUGBANK_ID>
DB07870

> <DRUG_GROUPS>
experimental

> <GENERIC_NAME>
(2S)-2-(4-{[3-CHLORO-5-(TRIFLUOROMETHYL)PYRIDIN-2-YL]OXY}PHENOXY)PROPANOIC ACID

> <CHEMICAL_FORMULA>
C15H11ClF3NO4

> <MOLECULAR_WEIGHT>
361.7

> <EXACT_MASS>
361.032870167

> <IUPAC_NAME>
(2R)-2-(4-{[3-chloro-5-(trifluoromethyl)pyridin-2-yl]oxy}phenoxy)propanoic acid

> <IUPAC_TRADITIONAL_NAME>
(2R)-2-(4-{[3-chloro-5-(trifluoromethyl)pyridin-2-yl]oxy}phenoxy)propanoic acid

> <INCHI_IDENTIFIER>
InChI=1S/C15H11ClF3NO4/c1-8(14(21)22)23-10-2-4-11(5-3-10)24-13-12(16)6-9(7-20-13)15(17,18)19/h2-8H,1H3,(H,21,22)/t8-/m1/s1

> <INCHI_KEY>
InChIKey=GOCUAJYOYBLQRH-MRVPVSSYSA-N

> <SMILES>
[H][C@](C)(OC1=CC=C(OC2=NC=C(C=C2Cl)C(F)(F)F)C=C1)C(O)=O

> <JCHEM_ACCEPTOR_COUNT>
4

> <JCHEM_DONOR_COUNT>
1

> <JCHEM_ACIDIC_PKA>
2.78

> <JCHEM_BASIC_PKA>
-0.8

> <JCHEM_PHYSIOLOGICAL_CHARGE>
-1

> <ALOGPS_LOGP>
3.83

> <JCHEM_LOGP>
4.22

> <ALOGPS_LOGS>
-4.5

> <JCHEM_POLARIZABILITY>
30.63

> <JCHEM_POLAR_SURFACE_AREA>
68.65

> <JCHEM_REFRACTIVITY>
78.28

> <JCHEM_ROTATABLE_BOND_COUNT>
6

> <ALOGPS_SOLUBILITY>
1.04e-02 g/l __ 

$$$$
