A58
  Mrv0541 02241213212D          

 32 36  0  0  0  0            999 V2000
    4.8896   -2.1335    0.0000 C   0  0  0  0  0  0  0  0  0  0  0  0
    2.4793   -2.6958    0.0000 C   0  0  1  0  0  0  0  0  0  0  0  0
    3.0433   -3.2978    0.0000 C   0  0  0  0  0  0  0  0  0  0  0  0
    3.8468   -3.1104    0.0000 C   0  0  0  0  0  0  0  0  0  0  0  0
    4.0862   -2.3209    0.0000 C   0  0  1  0  0  0  0  0  0  0  0  0
    3.5222   -1.7189    0.0000 C   0  0  0  0  0  0  0  0  0  0  0  0
    2.7187   -1.9063    0.0000 C   0  0  0  0  0  0  0  0  0  0  0  0
    1.6759   -2.8832    0.0000 N   0  0  0  0  0  0  0  0  0  0  0  0
    1.1119   -2.2811    0.0000 C   0  0  0  0  0  0  0  0  0  0  0  0
    0.3084   -2.4685    0.0000 C   0  0  0  0  0  0  0  0  0  0  0  0
   -0.2556   -1.8664    0.0000 C   0  0  0  0  0  0  0  0  0  0  0  0
   -1.0590   -2.0538    0.0000 C   0  0  0  0  0  0  0  0  0  0  0  0
   -1.2984   -2.8433    0.0000 C   0  0  0  0  0  0  0  0  0  0  0  0
   -0.7344   -3.4454    0.0000 C   0  0  0  0  0  0  0  0  0  0  0  0
    0.0690   -3.2580    0.0000 C   0  0  0  0  0  0  0  0  0  0  0  0
   -1.7359   -1.5821    0.0000 C   0  0  0  0  0  0  0  0  0  0  0  0
   -2.3936   -2.0801    0.0000 C   0  0  0  0  0  0  0  0  0  0  0  0
   -2.1233   -2.8595    0.0000 C   0  0  0  0  0  0  0  0  0  0  0  0
   -3.2185   -2.0963    0.0000 C   0  0  0  0  0  0  0  0  0  0  0  0
   -3.4579   -2.8858    0.0000 N   0  0  0  0  0  0  0  0  0  0  0  0
   -2.7810   -3.3575    0.0000 N   0  0  0  0  0  0  0  0  0  0  0  0
   -3.7165   -1.4386    0.0000 C   0  0  0  0  0  0  0  0  0  0  0  0
   -3.3958   -0.6785    0.0000 C   0  0  0  0  0  0  0  0  0  0  0  0
   -3.8938   -0.0207    0.0000 C   0  0  0  0  0  0  0  0  0  0  0  0
   -4.7124   -0.1231    0.0000 C   0  0  0  0  0  0  0  0  0  0  0  0
   -5.0331   -0.8832    0.0000 C   0  0  0  0  0  0  0  0  0  0  0  0
   -4.5351   -1.5410    0.0000 C   0  0  0  0  0  0  0  0  0  0  0  0
   -5.2104    0.5347    0.0000 C   0  0  0  0  0  0  0  0  0  0  0  0
   -6.0290    0.4323    0.0000 O   0  0  0  0  0  0  0  0  0  0  0  0
   -4.8898    1.2948    0.0000 O   0  0  0  0  0  0  0  0  0  0  0  0
    4.4854   -2.7471    0.0000 H   0  0  0  0  0  0  0  0  0  0  0  0
    2.0801   -2.2696    0.0000 H   0  0  0  0  0  0  0  0  0  0  0  0
  5  1  1  1  0  0  0
  2  7  1  0  0  0  0
  2  3  1  0  0  0  0
  2  8  1  6  0  0  0
  2 32  1  1  0  0  0
  3  4  1  0  0  0  0
  4  5  1  0  0  0  0
  5  6  1  0  0  0  0
  5 31  1  6  0  0  0
  6  7  1  0  0  0  0
  8  9  1  0  0  0  0
  9 10  1  0  0  0  0
 10 15  1  0  0  0  0
 10 11  2  0  0  0  0
 11 12  1  0  0  0  0
 12 13  2  0  0  0  0
 12 16  1  0  0  0  0
 13 14  1  0  0  0  0
 13 18  1  0  0  0  0
 14 15  2  0  0  0  0
 16 17  1  0  0  0  0
 17 19  1  0  0  0  0
 17 18  2  0  0  0  0
 18 21  1  0  0  0  0
 19 20  2  0  0  0  0
 19 22  1  0  0  0  0
 20 21  1  0  0  0  0
 22 27  1  0  0  0  0
 22 23  2  0  0  0  0
 23 24  1  0  0  0  0
 24 25  2  0  0  0  0
 25 26  1  0  0  0  0
 25 28  1  0  0  0  0
 26 27  2  0  0  0  0
 28 29  1  0  0  0  0
 28 30  2  0  0  0  0
M  END
> <DRUGBANK_ID>
DB07320

> <DRUG_GROUPS>
experimental

> <GENERIC_NAME>
4-(6-{[(4-METHYLCYCLOHEXYL)AMINO]METHYL}-1,4-DIHYDROINDENO[1,2-C]PYRAZOL-3-YL)BENZOIC ACID

> <CHEMICAL_FORMULA>
C25H27N3O2

> <MOLECULAR_WEIGHT>
401.5008

> <EXACT_MASS>
401.210327123

> <IUPAC_NAME>
4-[6-({[(1r,4r)-4-methylcyclohexyl]amino}methyl)-1H,4H-indeno[1,2-c]pyrazol-3-yl]benzoic acid

> <IUPAC_TRADITIONAL_NAME>
4-[6-({[(1r,4r)-4-methylcyclohexyl]amino}methyl)-1H,4H-indeno[1,2-c]pyrazol-3-yl]benzoic acid

> <INCHI_IDENTIFIER>
InChI=1S/C25H27N3O2/c1-15-2-9-20(10-3-15)26-14-16-4-11-21-19(12-16)13-22-23(27-28-24(21)22)17-5-7-18(8-6-17)25(29)30/h4-8,11-12,15,20,26H,2-3,9-10,13-14H2,1H3,(H,27,28)(H,29,30)/t15-,20-

> <INCHI_KEY>
InChIKey=MEDLHZCDTXWLOC-SGNKCFNYSA-N

> <SMILES>
[H][C@]1(C)CC[C@@]([H])(CC1)NCC1=CC2=C(C=C1)C1=C(C2)C(=NN1)C1=CC=C(C=C1)C(O)=O

> <JCHEM_ACCEPTOR_COUNT>
4

> <JCHEM_DONOR_COUNT>
3

> <JCHEM_ACIDIC_PKA>
3.89

> <JCHEM_BASIC_PKA>
10.43

> <JCHEM_PHYSIOLOGICAL_CHARGE>
0

> <ALOGPS_LOGP>
4.28

> <JCHEM_LOGP>
2.82

> <ALOGPS_LOGS>
-5.2

> <JCHEM_POLARIZABILITY>
47.56

> <JCHEM_POLAR_SURFACE_AREA>
78.01

> <JCHEM_REFRACTIVITY>
119.27

> <JCHEM_ROTATABLE_BOND_COUNT>
5

> <ALOGPS_SOLUBILITY>
2.81e-03 g/l __ 

$$$$
