EI1
  Mrv0541 02241213362D          

 19 21  0  0  0  0            999 V2000
    0.5512   -1.7739    0.0000 C   0  0  0  0  0  0  0  0  0  0  0  0
   -0.0008   -1.1608    0.0000 C   0  0  0  0  0  0  0  0  0  0  0  0
    0.2541   -0.3762    0.0000 C   0  0  0  0  0  0  0  0  0  0  0  0
    1.0387   -0.1212    0.0000 C   0  0  0  0  0  0  0  0  0  0  0  0
    1.7532   -0.5337    0.0000 C   0  0  0  0  0  0  0  0  0  0  0  0
    2.4677   -0.1212    0.0000 C   0  0  0  0  0  0  0  0  0  0  0  0
    3.1821   -0.5337    0.0000 O   0  0  0  0  0  0  0  0  0  0  0  0
    2.4677    0.7038    0.0000 C   0  0  0  0  0  0  0  0  0  0  0  0
    1.7532    1.1163    0.0000 C   0  0  0  0  0  0  0  0  0  0  0  0
    1.0387    0.7038    0.0000 C   0  0  0  0  0  0  0  0  0  0  0  0
    0.2541    0.9587    0.0000 N   0  0  0  0  0  0  0  0  0  0  0  0
   -0.2308    0.2913    0.0000 N   0  0  0  0  0  0  0  0  0  0  0  0
   -1.0558    0.2913    0.0000 C   0  0  0  0  0  0  0  0  0  0  0  0
   -1.4683   -0.4232    0.0000 C   0  0  0  0  0  0  0  0  0  0  0  0
   -2.2933   -0.4232    0.0000 C   0  0  0  0  0  0  0  0  0  0  0  0
   -2.7058    0.2913    0.0000 C   0  0  0  0  0  0  0  0  0  0  0  0
   -3.5308    0.2913    0.0000 O   0  0  0  0  0  0  0  0  0  0  0  0
   -2.2933    1.0057    0.0000 C   0  0  0  0  0  0  0  0  0  0  0  0
   -1.4683    1.0057    0.0000 C   0  0  0  0  0  0  0  0  0  0  0  0
  1  2  1  0  0  0  0
  2  3  1  0  0  0  0
  3 12  1  0  0  0  0
  3  4  2  0  0  0  0
  4 10  1  0  0  0  0
  4  5  1  0  0  0  0
  5  6  2  0  0  0  0
  6  8  1  0  0  0  0
  6  7  1  0  0  0  0
  8  9  2  0  0  0  0
  9 10  1  0  0  0  0
 10 11  2  0  0  0  0
 11 12  1  0  0  0  0
 12 13  1  0  0  0  0
 13 14  2  0  0  0  0
 13 19  1  0  0  0  0
 14 15  1  0  0  0  0
 15 16  2  0  0  0  0
 16 17  1  0  0  0  0
 16 18  1  0  0  0  0
 18 19  2  0  0  0  0
M  END
> <DRUGBANK_ID>
DB07712

> <DRUG_GROUPS>
experimental

> <GENERIC_NAME>
3-ETHYL-2-(4-HYDROXYPHENYL)-2H-INDAZOL-5-OL

> <CHEMICAL_FORMULA>
C15H14N2O2

> <MOLECULAR_WEIGHT>
254.2839

> <EXACT_MASS>
254.105527702

> <IUPAC_NAME>
3-ethyl-2-(4-hydroxyphenyl)-2H-indazol-5-ol

> <IUPAC_TRADITIONAL_NAME>
3-ethyl-2-(4-hydroxyphenyl)indazol-5-ol

> <INCHI_IDENTIFIER>
InChI=1S/C15H14N2O2/c1-2-15-13-9-12(19)7-8-14(13)16-17(15)10-3-5-11(18)6-4-10/h3-9,18-19H,2H2,1H3

> <INCHI_KEY>
InChIKey=XBMVVMYGKMGLJX-UHFFFAOYSA-N

> <SMILES>
CCC1=C2C=C(O)C=CC2=NN1C1=CC=C(O)C=C1

> <JCHEM_ACCEPTOR_COUNT>
3

> <JCHEM_DONOR_COUNT>
2

> <JCHEM_ACIDIC_PKA>
9.41

> <JCHEM_BASIC_PKA>
1.39

> <JCHEM_PHYSIOLOGICAL_CHARGE>
0

> <ALOGPS_LOGP>
3.14

> <JCHEM_LOGP>
3.55

> <ALOGPS_LOGS>
-3

> <JCHEM_POLARIZABILITY>
27.53

> <JCHEM_POLAR_SURFACE_AREA>
58.28

> <JCHEM_REFRACTIVITY>
74.13

> <JCHEM_ROTATABLE_BOND_COUNT>
2

> <ALOGPS_SOLUBILITY>
2.44e-01 g/l __ 

$$$$
