BFB
  Mrv0541 02241213262D          

 21 21  0  0  0  0            999 V2000
    0.0892    2.3678    0.0000 O   0  0  0  0  0  0  0  0  0  0  0  0
   -0.6253    1.9553    0.0000 C   0  0  0  0  0  0  0  0  0  0  0  0
   -1.3398    2.3678    0.0000 N   0  0  0  0  0  0  0  0  0  0  0  0
   -0.6253    1.1303    0.0000 C   0  0  2  0  0  0  0  0  0  0  0  0
   -1.3398    0.7178    0.0000 C   0  0  0  0  0  0  0  0  0  0  0  0
   -2.0542    1.1303    0.0000 C   0  0  0  0  0  0  0  0  0  0  0  0
   -2.7687    0.7178    0.0000 C   0  0  0  0  0  0  0  0  0  0  0  0
   -3.4832    1.1303    0.0000 N   0  0  0  0  0  0  0  0  0  0  0  0
   -4.1976    0.7178    0.0000 C   0  0  0  0  0  0  0  0  0  0  0  0
   -4.9121    1.1303    0.0000 C   0  0  0  0  0  0  0  0  0  0  0  0
   -4.1976   -0.1072    0.0000 N   0  0  0  0  0  0  0  0  0  0  0  0
    0.0892    0.7178    0.0000 N   0  0  0  0  0  0  0  0  0  0  0  0
    0.8037    1.1303    0.0000 C   0  0  0  0  0  0  0  0  0  0  0  0
    0.8037    1.9553    0.0000 O   0  0  0  0  0  0  0  0  0  0  0  0
    1.5181    0.7178    0.0000 C   0  0  0  0  0  0  0  0  0  0  0  0
    1.5181   -0.1072    0.0000 C   0  0  0  0  0  0  0  0  0  0  0  0
    2.2326    1.1303    0.0000 C   0  0  0  0  0  0  0  0  0  0  0  0
    2.9471    0.7178    0.0000 C   0  0  0  0  0  0  0  0  0  0  0  0
    2.9471   -0.1072    0.0000 C   0  0  0  0  0  0  0  0  0  0  0  0
    2.2326   -0.5197    0.0000 C   0  0  0  0  0  0  0  0  0  0  0  0
   -1.1310    1.4223    0.0000 H   0  0  0  0  0  0  0  0  0  0  0  0
  1  2  2  0  0  0  0
  2  4  1  0  0  0  0
  2  3  1  0  0  0  0
  4  5  1  0  0  0  0
  4 12  1  6  0  0  0
  4 21  1  6  0  0  0
  5  6  1  0  0  0  0
  6  7  1  0  0  0  0
  7  8  1  0  0  0  0
  8  9  1  0  0  0  0
  9 11  2  0  0  0  0
  9 10  1  0  0  0  0
 12 13  1  0  0  0  0
 13 14  2  0  0  0  0
 13 15  1  0  0  0  0
 15 17  2  0  0  0  0
 15 16  1  0  0  0  0
 16 20  2  0  0  0  0
 17 18  1  0  0  0  0
 18 19  2  0  0  0  0
 19 20  1  0  0  0  0
M  END
> <DRUGBANK_ID>
DB07449

> <DRUG_GROUPS>
experimental

> <GENERIC_NAME>
N-[(1S)-1-(AMINOCARBONYL)-4-(ETHANIMIDOYLAMINO)BUTYL]BENZAMIDE

> <CHEMICAL_FORMULA>
C14H20N4O2

> <MOLECULAR_WEIGHT>
276.3342

> <EXACT_MASS>
276.158625904

> <IUPAC_NAME>
(2S)-5-ethanimidamido-2-(phenylformamido)pentanamide

> <IUPAC_TRADITIONAL_NAME>
(2S)-5-ethanimidamido-2-(phenylformamido)pentanamide

> <INCHI_IDENTIFIER>
InChI=1S/C14H20N4O2/c1-10(15)17-9-5-8-12(13(16)19)18-14(20)11-6-3-2-4-7-11/h2-4,6-7,12H,5,8-9H2,1H3,(H2,15,17)(H2,16,19)(H,18,20)/t12-/m0/s1

> <INCHI_KEY>
InChIKey=LWFFSSMDFWZNNW-LBPRGKRZSA-N

> <SMILES>
[H][C@@](CCCNC(C)=N)(NC(=O)C1=CC=CC=C1)C(N)=O

> <JCHEM_ACCEPTOR_COUNT>
4

> <JCHEM_DONOR_COUNT>
4

> <JCHEM_ACIDIC_PKA>
14.99

> <JCHEM_BASIC_PKA>
12.82

> <JCHEM_PHYSIOLOGICAL_CHARGE>
1

> <ALOGPS_LOGP>
0.07

> <JCHEM_LOGP>
-0.35

> <ALOGPS_LOGS>
-2.9

> <JCHEM_POLARIZABILITY>
29.81

> <JCHEM_POLAR_SURFACE_AREA>
108.07

> <JCHEM_REFRACTIVITY>
87.06

> <JCHEM_ROTATABLE_BOND_COUNT>
7

> <ALOGPS_SOLUBILITY>
3.40e-01 g/l __ 

$$$$
