B72
  Mrv0541 02241213252D          

 24 25  0  0  0  0            999 V2000
    4.6381    1.7445    0.0000 O   0  0  0  0  0  0  0  0  0  0  0  0
    3.9236    2.1570    0.0000 C   0  0  0  0  0  0  0  0  0  0  0  0
    3.9236    2.9820    0.0000 O   0  0  0  0  0  0  0  0  0  0  0  0
    3.2092    1.7445    0.0000 C   0  0  0  0  0  0  0  0  0  0  0  0
    2.4947    2.1570    0.0000 O   0  0  0  0  0  0  0  0  0  0  0  0
    1.7802    1.7445    0.0000 C   0  0  0  0  0  0  0  0  0  0  0  0
    1.0658    2.1570    0.0000 C   0  0  0  0  0  0  0  0  0  0  0  0
    0.3513    1.7445    0.0000 C   0  0  0  0  0  0  0  0  0  0  0  0
   -0.3632    2.1570    0.0000 C   0  0  0  0  0  0  0  0  0  0  0  0
    0.3513    0.9195    0.0000 C   0  0  0  0  0  0  0  0  0  0  0  0
    1.0658    0.5070    0.0000 C   0  0  0  0  0  0  0  0  0  0  0  0
    1.7802    0.9195    0.0000 C   0  0  0  0  0  0  0  0  0  0  0  0
    1.0658   -0.3180    0.0000 C   0  0  0  0  0  0  0  0  0  0  0  0
   -0.3632    0.5070    0.0000 C   0  0  0  0  0  0  0  0  0  0  0  0
   -0.3632   -0.3180    0.0000 C   0  0  0  0  0  0  0  0  0  0  0  0
   -1.0777   -0.7305    0.0000 C   0  0  0  0  0  0  0  0  0  0  0  0
   -1.0777   -1.5555    0.0000 C   0  0  0  0  0  0  0  0  0  0  0  0
   -1.7921   -1.9680    0.0000 C   0  0  0  0  0  0  0  0  0  0  0  0
   -1.7921   -2.7930    0.0000 C   0  0  0  0  0  0  0  0  0  0  0  0
   -2.5066   -1.5555    0.0000 C   0  0  0  0  0  0  0  0  0  0  0  0
   -0.3632   -1.9680    0.0000 C   0  0  0  0  0  0  0  0  0  0  0  0
   -0.3632   -2.7930    0.0000 O   0  0  0  0  0  0  0  0  0  0  0  0
    0.3513   -1.5555    0.0000 C   0  0  0  0  0  0  0  0  0  0  0  0
    0.3513   -0.7305    0.0000 C   0  0  0  0  0  0  0  0  0  0  0  0
  2  3  2  0  0  0  0
  2  1  1  0  0  0  0
  4  2  1  0  0  0  0
  5  4  1  0  0  0  0
  6  5  1  0  0  0  0
  7  6  1  0  0  0  0
  8  7  2  0  0  0  0
  9  8  1  0  0  0  0
 10 11  2  0  0  0  0
 10  8  1  0  0  0  0
 11 12  1  0  0  0  0
 12  6  2  0  0  0  0
 13 11  1  0  0  0  0
 14 10  1  0  0  0  0
 15 24  1  0  0  0  0
 15 14  1  0  0  0  0
 16 15  2  0  0  0  0
 17 21  2  0  0  0  0
 17 16  1  0  0  0  0
 18 17  1  0  0  0  0
 18 20  1  0  0  0  0
 19 18  1  0  0  0  0
 21 23  1  0  0  0  0
 22 21  1  0  0  0  0
 23 24  2  0  0  0  0
M  END
> <DRUGBANK_ID>
DB07425

> <DRUG_GROUPS>
experimental

> <GENERIC_NAME>
{4-[4-hydroxy-3-(1-methylethyl)benzyl]-3,5-dimethylphenoxy}acetic acid

> <CHEMICAL_FORMULA>
C20H24O4

> <MOLECULAR_WEIGHT>
328.4022

> <EXACT_MASS>
328.167459256

> <IUPAC_NAME>
2-(4-{[4-hydroxy-3-(propan-2-yl)phenyl]methyl}-3,5-dimethylphenoxy)acetic acid

> <IUPAC_TRADITIONAL_NAME>
4-[(4-hydroxy-3-isopropylphenyl)methyl]-3,5-dimethylphenoxyacetic acid

> <INCHI_IDENTIFIER>
InChI=1S/C20H24O4/c1-12(2)17-9-15(5-6-19(17)21)10-18-13(3)7-16(8-14(18)4)24-11-20(22)23/h5-9,12,21H,10-11H2,1-4H3,(H,22,23)

> <INCHI_KEY>
InChIKey=QNAZTOHXCZPOSA-UHFFFAOYSA-N

> <SMILES>
CC(C)C1=C(O)C=CC(CC2=C(C)C=C(OCC(O)=O)C=C2C)=C1

> <JCHEM_ACCEPTOR_COUNT>
4

> <JCHEM_DONOR_COUNT>
2

> <JCHEM_ACIDIC_PKA>
3.93

> <JCHEM_BASIC_PKA>
-4.9

> <JCHEM_PHYSIOLOGICAL_CHARGE>
-1

> <ALOGPS_LOGP>
4.23

> <JCHEM_LOGP>
5.35

> <ALOGPS_LOGS>
-5.1

> <JCHEM_POLARIZABILITY>
36.6

> <JCHEM_POLAR_SURFACE_AREA>
66.76

> <JCHEM_REFRACTIVITY>
94.6

> <JCHEM_ROTATABLE_BOND_COUNT>
6

> <ALOGPS_SOLUBILITY>
2.61e-03 g/l __ 

$$$$
