DFD
  Mrv0541 02241213332D          

 13 12  0  0  0  0            999 V2000
   -3.0189    0.2759    0.0000 C   0  0  0  0  0  0  0  0  0  0  0  0
   -2.3045   -0.1366    0.0000 C   0  0  0  0  0  0  0  0  0  0  0  0
   -1.5899    0.2759    0.0000 C   0  0  0  0  0  0  0  0  0  0  0  0
   -0.8754   -0.1366    0.0000 C   0  0  0  0  0  0  0  0  0  0  0  0
   -0.1609    0.2759    0.0000 C   0  0  0  0  0  0  0  0  0  0  0  0
    0.5536   -0.1366    0.0000 C   0  0  0  0  0  0  0  0  0  0  0  0
    1.2682    0.2759    0.0000 C   0  0  0  0  0  0  0  0  0  0  0  0
    1.9827   -0.1366    0.0000 C   0  0  0  0  0  0  0  0  0  0  0  0
    2.6972    0.2759    0.0000 C   0  0  0  0  0  0  0  0  0  0  0  0
    3.4118   -0.1366    0.0000 C   0  0  0  0  0  0  0  0  0  0  0  0
    4.1263    0.2759    0.0000 O   0  0  0  0  0  0  0  0  0  0  0  0
    4.8408   -0.1366    0.0000 C   0  0  0  0  0  0  0  0  0  0  0  0
    5.5553    0.2759    0.0000 O   0  0  0  0  0  0  0  0  0  0  0  0
  1  2  1  0  0  0  0
  2  3  1  0  0  0  0
  3  4  1  0  0  0  0
  4  5  1  0  0  0  0
  5  6  1  0  0  0  0
  6  7  1  0  0  0  0
  7  8  1  0  0  0  0
  8  9  1  0  0  0  0
  9 10  1  0  0  0  0
 10 11  1  0  0  0  0
 11 12  1  0  0  0  0
 12 13  2  0  0  0  0
M  END
> <DRUGBANK_ID>
DB07650

> <DRUG_GROUPS>
experimental

> <GENERIC_NAME>
DECYL FORMATE

> <CHEMICAL_FORMULA>
C11H22O2

> <MOLECULAR_WEIGHT>
186.2912

> <EXACT_MASS>
186.161979948

> <IUPAC_NAME>
decyl formate

> <IUPAC_TRADITIONAL_NAME>
decyl formate

> <INCHI_IDENTIFIER>
InChI=1S/C11H22O2/c1-2-3-4-5-6-7-8-9-10-13-11-12/h11H,2-10H2,1H3

> <INCHI_KEY>
InChIKey=BCLJZFLDSCTULJ-UHFFFAOYSA-N

> <SMILES>
CCCCCCCCCCOC=O

> <JCHEM_ACCEPTOR_COUNT>
1

> <JCHEM_DONOR_COUNT>
0

> <JCHEM_BASIC_PKA>
-6.8

> <JCHEM_PHYSIOLOGICAL_CHARGE>
0

> <ALOGPS_LOGP>
4.86

> <JCHEM_LOGP>
3.87

> <ALOGPS_LOGS>
-4.3

> <JCHEM_POLARIZABILITY>
23.84

> <JCHEM_POLAR_SURFACE_AREA>
26.3

> <JCHEM_REFRACTIVITY>
54.4

> <JCHEM_ROTATABLE_BOND_COUNT>
10

> <ALOGPS_SOLUBILITY>
9.57e-03 g/l __ 

$$$$
