F24
  Mrv0541 02241213372D          

 28 27  0  0  0  0            999 V2000
   -5.3799    0.3984    0.0000 O   0  0  0  0  0  0  0  0  0  0  0  0
   -4.6100    0.6948    0.0000 C   0  0  0  0  0  0  0  0  0  0  0  0
   -4.4816    1.5097    0.0000 O   0  0  0  0  0  0  0  0  0  0  0  0
   -3.9684    0.1762    0.0000 C   0  0  0  0  0  0  0  0  0  0  0  0
   -3.1984    0.4725    0.0000 C   0  0  2  0  0  0  0  0  0  0  0  0
   -3.0701    1.2875    0.0000 C   0  0  0  0  0  0  0  0  0  0  0  0
   -2.5568   -0.0461    0.0000 C   0  0  0  0  0  0  0  0  0  0  0  0
   -1.7869    0.2503    0.0000 C   0  0  1  0  0  0  0  0  0  0  0  0
   -1.6585    1.0652    0.0000 C   0  0  0  0  0  0  0  0  0  0  0  0
   -1.1452   -0.2683    0.0000 C   0  0  0  0  0  0  0  0  0  0  0  0
   -0.3753    0.0280    0.0000 C   0  0  2  0  0  0  0  0  0  0  0  0
   -0.2470    0.8430    0.0000 C   0  0  0  0  0  0  0  0  0  0  0  0
    0.2663   -0.4906    0.0000 C   0  0  0  0  0  0  0  0  0  0  0  0
    1.0362   -0.1943    0.0000 C   0  0  0  0  0  0  0  0  0  0  0  0
    1.6779   -0.7129    0.0000 C   0  0  0  0  0  0  0  0  0  0  0  0
    2.4478   -0.4165    0.0000 C   0  0  0  0  0  0  0  0  0  0  0  0
    3.0894   -0.9351    0.0000 C   0  0  2  0  0  0  0  0  0  0  0  0
    2.9611   -1.7501    0.0000 O   0  0  0  0  0  0  0  0  0  0  0  0
    3.8593   -0.6388    0.0000 C   0  0  1  0  0  0  0  0  0  0  0  0
    4.5010   -1.1574    0.0000 C   0  0  0  0  0  0  0  0  0  0  0  0
    5.2709   -0.8610    0.0000 O   0  0  0  0  0  0  0  0  0  0  0  0
    3.9877    0.1762    0.0000 C   0  0  0  0  0  0  0  0  0  0  0  0
    4.7576    0.4725    0.0000 O   0  0  0  0  0  0  0  0  0  0  0  0
   -3.6525    0.8396    0.0000 H   0  0  0  0  0  0  0  0  0  0  0  0
   -2.2410    0.6173    0.0000 H   0  0  0  0  0  0  0  0  0  0  0  0
   -0.8294    0.3951    0.0000 H   0  0  0  0  0  0  0  0  0  0  0  0
    2.5444   -1.1449    0.0000 H   0  0  0  0  0  0  0  0  0  0  0  0
    3.7685   -1.2156    0.0000 H   0  0  0  0  0  0  0  0  0  0  0  0
  1  2  1  0  0  0  0
  2  3  2  0  0  0  0
  2  4  1  0  0  0  0
  4  5  1  0  0  0  0
  5  6  1  6  0  0  0
  5  7  1  0  0  0  0
  5 24  1  1  0  0  0
  7  8  1  0  0  0  0
  8  9  1  1  0  0  0
  8 10  1  0  0  0  0
  8 25  1  6  0  0  0
 10 11  1  0  0  0  0
 11 12  1  6  0  0  0
 11 13  1  0  0  0  0
 11 26  1  1  0  0  0
 13 14  1  0  0  0  0
 14 15  1  0  0  0  0
 15 16  1  0  0  0  0
 16 17  1  0  0  0  0
 17 18  1  1  0  0  0
 17 19  1  0  0  0  0
 17 27  1  6  0  0  0
 19 20  1  0  0  0  0
 19 22  1  1  0  0  0
 19 28  1  1  0  0  0
 20 21  1  0  0  0  0
 22 23  2  0  0  0  0
M  END
> <DRUGBANK_ID>
DB07740

> <DRUG_GROUPS>
experimental

> <GENERIC_NAME>
(3R,5S,7R,12S,13R)-13-FORMYL-12,14-DIHYDROXY-3,5,7-TRIMETHYLTETRADECANOIC ACID

> <CHEMICAL_FORMULA>
C18H34O5

> <MOLECULAR_WEIGHT>
330.4596

> <EXACT_MASS>
330.240624198

> <IUPAC_NAME>
(3R,5S,7R,12S,13R)-13-formyl-12,14-dihydroxy-3,5,7-trimethyltetradecanoic acid

> <IUPAC_TRADITIONAL_NAME>
(3R,5S,7R,12S,13R)-13-formyl-12,14-dihydroxy-3,5,7-trimethyltetradecanoic acid

> <INCHI_IDENTIFIER>
InChI=1S/C18H34O5/c1-13(8-14(2)9-15(3)10-18(22)23)6-4-5-7-17(21)16(11-19)12-20/h11,13-17,20-21H,4-10,12H2,1-3H3,(H,22,23)/t13-,14+,15-,16-,17+/m1/s1

> <INCHI_KEY>
InChIKey=IXYKBBOQNSGWJZ-JJTUDDRGSA-N

> <SMILES>
[H][C@@](C)(CCCC[C@]([H])(O)[C@@]([H])(CO)C=O)C[C@]([H])(C)C[C@@]([H])(C)CC(O)=O

> <JCHEM_ACCEPTOR_COUNT>
5

> <JCHEM_DONOR_COUNT>
3

> <JCHEM_ACIDIC_PKA>
5.08

> <JCHEM_BASIC_PKA>
-2.7

> <JCHEM_PHYSIOLOGICAL_CHARGE>
-1

> <ALOGPS_LOGP>
2.96

> <JCHEM_LOGP>
2.78

> <ALOGPS_LOGS>
-3.6

> <JCHEM_POLARIZABILITY>
38.5

> <JCHEM_POLAR_SURFACE_AREA>
94.83

> <JCHEM_REFRACTIVITY>
90.13

> <JCHEM_ROTATABLE_BOND_COUNT>
14

> <ALOGPS_SOLUBILITY>
7.69e-02 g/l __ 

$$$$
