4AN
  Mrv0541 02241213122D          

 16 18  0  0  0  0            999 V2000
   -0.9692    1.2841    0.0000 C   0  0  0  0  0  0  0  0  0  0  0  0
   -0.9692    2.1091    0.0000 O   0  0  0  0  0  0  0  0  0  0  0  0
   -0.2548    0.8716    0.0000 C   0  0  0  0  0  0  0  0  0  0  0  0
    0.4597    1.2841    0.0000 C   0  0  0  0  0  0  0  0  0  0  0  0
    1.1742    0.8716    0.0000 C   0  0  0  0  0  0  0  0  0  0  0  0
    1.1742    0.0466    0.0000 C   0  0  0  0  0  0  0  0  0  0  0  0
    1.8887   -0.3659    0.0000 N   0  0  0  0  0  0  0  0  0  0  0  0
    0.4597   -1.1909    0.0000 C   0  0  0  0  0  0  0  0  0  0  0  0
   -0.2548   -1.6034    0.0000 C   0  0  0  0  0  0  0  0  0  0  0  0
   -0.9692   -1.1909    0.0000 C   0  0  0  0  0  0  0  0  0  0  0  0
   -0.9692   -0.3659    0.0000 C   0  0  0  0  0  0  0  0  0  0  0  0
   -1.6837    0.0466    0.0000 C   0  0  0  0  0  0  0  0  0  0  0  0
   -2.3982   -0.3659    0.0000 O   0  0  0  0  0  0  0  0  0  0  0  0
   -1.6837    0.8716    0.0000 N   0  0  0  0  0  0  0  0  0  0  0  0
   -0.2548    0.0466    0.0000 C   0  0  0  0  0  0  0  0  0  0  0  0
    0.4597   -0.3659    0.0000 C   0  0  0  0  0  0  0  0  0  0  0  0
  1  2  2  0  0  0  0
  1  3  1  0  0  0  0
  1 14  1  0  0  0  0
  3  4  2  0  0  0  0
  3 15  1  0  0  0  0
  4  5  1  0  0  0  0
  5  6  2  0  0  0  0
  6  7  1  0  0  0  0
  6 16  1  0  0  0  0
  8  9  2  0  0  0  0
  8 16  1  0  0  0  0
  9 10  1  0  0  0  0
 10 11  2  0  0  0  0
 11 12  1  0  0  0  0
 11 15  1  0  0  0  0
 12 13  2  0  0  0  0
 12 14  1  0  0  0  0
 15 16  2  0  0  0  0
M  END
> <DRUGBANK_ID>
DB07096

> <DRUG_GROUPS>
experimental

> <GENERIC_NAME>
6-AMINO-BENZO[DE]ISOQUINOLINE-1,3-DIONE

> <CHEMICAL_FORMULA>
C12H8N2O2

> <MOLECULAR_WEIGHT>
212.2041

> <EXACT_MASS>
212.05857751

> <IUPAC_NAME>
10-amino-3-azatricyclo[7.3.1.0^{5,13}]trideca-1(13),5,7,9,11-pentaene-2,4-dione

> <IUPAC_TRADITIONAL_NAME>
4-amino-1,8-naphthalimide

> <INCHI_IDENTIFIER>
InChI=1S/C12H8N2O2/c13-9-5-4-8-10-6(9)2-1-3-7(10)11(15)14-12(8)16/h1-5H,13H2,(H,14,15,16)

> <INCHI_KEY>
InChIKey=SSMIFVHARFVINF-UHFFFAOYSA-N

> <SMILES>
NC1=CC=C2C(=O)NC(=O)C3=CC=CC1=C23

> <JCHEM_ACCEPTOR_COUNT>
3

> <JCHEM_DONOR_COUNT>
2

> <JCHEM_ACIDIC_PKA>
9.01

> <JCHEM_BASIC_PKA>
2.64

> <JCHEM_PHYSIOLOGICAL_CHARGE>
0

> <ALOGPS_LOGP>
1.19

> <JCHEM_LOGP>
0.85

> <ALOGPS_LOGS>
-2.7

> <JCHEM_POLARIZABILITY>
20.78

> <JCHEM_POLAR_SURFACE_AREA>
72.19

> <JCHEM_REFRACTIVITY>
60.47

> <JCHEM_ROTATABLE_BOND_COUNT>
0

> <ALOGPS_SOLUBILITY>
3.97e-01 g/l __ 

$$$$
