55V
  Mrv0541 02241213142D          

 26 27  0  0  0  0            999 V2000
    0.6593    3.0260    0.0000 C   0  0  0  0  0  0  0  0  0  0  0  0
    1.3737    2.6135    0.0000 O   0  0  0  0  0  0  0  0  0  0  0  0
    1.3737    1.7885    0.0000 C   0  0  0  0  0  0  0  0  0  0  0  0
    0.6593    1.3760    0.0000 C   0  0  0  0  0  0  0  0  0  0  0  0
    2.0882    1.3760    0.0000 C   0  0  0  0  0  0  0  0  0  0  0  0
    2.8027    1.7885    0.0000 O   0  0  0  0  0  0  0  0  0  0  0  0
    3.5171    1.3760    0.0000 C   0  0  0  0  0  0  0  0  0  0  0  0
    2.0882    0.5510    0.0000 C   0  0  0  0  0  0  0  0  0  0  0  0
    2.8027    0.1385    0.0000 O   0  0  0  0  0  0  0  0  0  0  0  0
    2.8027   -0.6865    0.0000 C   0  0  0  0  0  0  0  0  0  0  0  0
    1.3737    0.1385    0.0000 C   0  0  0  0  0  0  0  0  0  0  0  0
    0.6593    0.5510    0.0000 C   0  0  0  0  0  0  0  0  0  0  0  0
   -0.0552    0.1385    0.0000 C   0  0  0  0  0  0  0  0  0  0  0  0
    0.3573   -0.5760    0.0000 C   0  0  0  0  0  0  0  0  0  0  0  0
   -0.4677    0.8530    0.0000 C   0  0  0  0  0  0  0  0  0  0  0  0
   -0.7697   -0.2740    0.0000 C   0  0  0  0  0  0  0  0  0  0  0  0
   -1.4841   -0.6865    0.0000 C   0  0  0  0  0  0  0  0  0  0  0  0
   -2.1986   -1.0990    0.0000 C   0  0  0  0  0  0  0  0  0  0  0  0
   -2.9131   -0.6865    0.0000 C   0  0  0  0  0  0  0  0  0  0  0  0
   -2.9131    0.1385    0.0000 C   0  0  0  0  0  0  0  0  0  0  0  0
   -3.6276   -1.0990    0.0000 N   0  0  0  0  0  0  0  0  0  0  0  0
   -3.6276   -1.9240    0.0000 C   0  0  0  0  0  0  0  0  0  0  0  0
   -4.3420   -2.3365    0.0000 N   0  0  0  0  0  0  0  0  0  0  0  0
   -2.9131   -2.3365    0.0000 N   0  0  0  0  0  0  0  0  0  0  0  0
   -2.1986   -1.9240    0.0000 C   0  0  0  0  0  0  0  0  0  0  0  0
   -1.4841   -2.3365    0.0000 N   0  0  0  0  0  0  0  0  0  0  0  0
  1  2  1  0  0  0  0
  2  3  1  0  0  0  0
  3  5  1  0  0  0  0
  4  3  2  0  0  0  0
  4 12  1  0  0  0  0
  5  6  1  0  0  0  0
  5  8  2  0  0  0  0
  6  7  1  0  0  0  0
  8  9  1  0  0  0  0
  9 10  1  0  0  0  0
 11  8  1  0  0  0  0
 12 11  2  0  0  0  0
 13 12  1  0  0  0  0
 13 16  1  0  0  0  0
 13 15  1  0  0  0  0
 14 13  1  0  0  0  0
 16 17  3  0  0  0  0
 17 18  1  0  0  0  0
 18 25  1  0  0  0  0
 19 18  2  0  0  0  0
 19 21  1  0  0  0  0
 20 19  1  0  0  0  0
 21 22  2  0  0  0  0
 22 23  1  0  0  0  0
 22 24  1  0  0  0  0
 25 24  2  0  0  0  0
 25 26  1  0  0  0  0
M  END
> <DRUGBANK_ID>
DB07153

> <DRUG_GROUPS>
experimental

> <GENERIC_NAME>
6-methyl-5-[3-methyl-3-(3,4,5-trimethoxyphenyl)but-1-yn-1-yl]pyrimidine-2,4-diamine

> <CHEMICAL_FORMULA>
C19H24N4O3

> <MOLECULAR_WEIGHT>
356.4189

> <EXACT_MASS>
356.184840654

> <IUPAC_NAME>
6-methyl-5-[3-methyl-3-(3,4,5-trimethoxyphenyl)but-1-yn-1-yl]pyrimidine-2,4-diamine

> <IUPAC_TRADITIONAL_NAME>
6-methyl-5-[3-methyl-3-(3,4,5-trimethoxyphenyl)but-1-yn-1-yl]pyrimidine-2,4-diamine

> <INCHI_IDENTIFIER>
InChI=1S/C19H24N4O3/c1-11-13(17(20)23-18(21)22-11)7-8-19(2,3)12-9-14(24-4)16(26-6)15(10-12)25-5/h9-10H,1-6H3,(H4,20,21,22,23)

> <INCHI_KEY>
InChIKey=FJNFXXGWYVMQNA-UHFFFAOYSA-N

> <SMILES>
COC1=CC(=CC(OC)=C1OC)C(C)(C)C#CC1=C(C)N=C(N)N=C1N

> <JCHEM_ACCEPTOR_COUNT>
7

> <JCHEM_DONOR_COUNT>
2

> <JCHEM_ACIDIC_PKA>
17.61

> <JCHEM_BASIC_PKA>
7.29

> <JCHEM_PHYSIOLOGICAL_CHARGE>
1

> <ALOGPS_LOGP>
2.94

> <JCHEM_LOGP>
2.48

> <ALOGPS_LOGS>
-4.5

> <JCHEM_POLARIZABILITY>
39.02

> <JCHEM_POLAR_SURFACE_AREA>
105.51

> <JCHEM_REFRACTIVITY>
100.76

> <JCHEM_ROTATABLE_BOND_COUNT>
6

> <ALOGPS_SOLUBILITY>
1.15e-02 g/l __ 

$$$$
