IOK
  Mrv0541 02241213472D          

 31 34  0  0  0  0            999 V2000
   -5.2485    3.8796    0.0000 C   0  0  0  0  0  0  0  0  0  0  0  0
   -5.9630    4.2921    0.0000 C   0  0  0  0  0  0  0  0  0  0  0  0
   -6.6774    3.8796    0.0000 C   0  0  0  0  0  0  0  0  0  0  0  0
   -6.6774    3.0546    0.0000 C   0  0  0  0  0  0  0  0  0  0  0  0
   -7.3919    2.6421    0.0000 O   0  0  0  0  0  0  0  0  0  0  0  0
   -5.9630    2.6421    0.0000 C   0  0  0  0  0  0  0  0  0  0  0  0
   -5.2485    3.0546    0.0000 C   0  0  0  0  0  0  0  0  0  0  0  0
   -4.5340    4.2921    0.0000 C   0  0  0  0  0  0  0  0  0  0  0  0
   -3.8195    3.8796    0.0000 C   0  0  0  0  0  0  0  0  0  0  0  0
   -3.1051    4.2921    0.0000 C   0  0  1  0  0  0  0  0  0  0  0  0
   -3.1051    5.1171    0.0000 C   0  0  0  0  0  0  0  0  0  0  0  0
   -2.3906    3.8796    0.0000 N   0  0  0  0  0  0  0  0  0  0  0  0
   -1.6761    4.2921    0.0000 C   0  0  0  0  0  0  0  0  0  0  0  0
   -1.6761    5.1171    0.0000 O   0  0  0  0  0  0  0  0  0  0  0  0
   -0.9617    3.8796    0.0000 C   0  0  0  0  0  0  0  0  0  0  0  0
   -0.2472    4.2921    0.0000 C   0  0  0  0  0  0  0  0  0  0  0  0
    0.5065    3.9565    0.0000 C   0  0  0  0  0  0  0  0  0  0  0  0
    1.0585    4.5696    0.0000 N   0  0  0  0  0  0  0  0  0  0  0  0
    0.6460    5.2841    0.0000 C   0  0  0  0  0  0  0  0  0  0  0  0
    0.9010    6.0687    0.0000 C   0  0  0  0  0  0  0  0  0  0  0  0
    0.3489    6.6818    0.0000 C   0  0  0  0  0  0  0  0  0  0  0  0
   -0.4580    6.5103    0.0000 C   0  0  0  0  0  0  0  0  0  0  0  0
   -0.7130    5.7257    0.0000 C   0  0  0  0  0  0  0  0  0  0  0  0
   -0.1609    5.1126    0.0000 C   0  0  0  0  0  0  0  0  0  0  0  0
    0.6780    3.1496    0.0000 C   0  0  0  0  0  0  0  0  0  0  0  0
    1.4626    2.8946    0.0000 C   0  0  0  0  0  0  0  0  0  0  0  0
    1.6342    2.0876    0.0000 C   0  0  0  0  0  0  0  0  0  0  0  0
    1.0211    1.5356    0.0000 C   0  0  0  0  0  0  0  0  0  0  0  0
    0.2365    1.7906    0.0000 C   0  0  0  0  0  0  0  0  0  0  0  0
    0.0649    2.5975    0.0000 C   0  0  0  0  0  0  0  0  0  0  0  0
   -3.6108    4.5841    0.0000 H   0  0  0  0  0  0  0  0  0  0  0  0
  1  7  1  0  0  0  0
  1  8  1  0  0  0  0
  1  2  2  0  0  0  0
  2  3  1  0  0  0  0
  3  4  2  0  0  0  0
  4  6  1  0  0  0  0
  4  5  1  0  0  0  0
  6  7  2  0  0  0  0
  8  9  1  0  0  0  0
  9 10  1  0  0  0  0
 10 11  1  1  0  0  0
 10 12  1  0  0  0  0
 10 31  1  6  0  0  0
 12 13  1  0  0  0  0
 13 14  2  0  0  0  0
 13 15  1  0  0  0  0
 15 16  1  0  0  0  0
 16 24  1  0  0  0  0
 16 17  2  0  0  0  0
 17 18  1  0  0  0  0
 17 25  1  0  0  0  0
 18 19  1  0  0  0  0
 19 24  2  0  0  0  0
 19 20  1  0  0  0  0
 20 21  2  0  0  0  0
 21 22  1  0  0  0  0
 22 23  2  0  0  0  0
 23 24  1  0  0  0  0
 25 26  2  0  0  0  0
 25 30  1  0  0  0  0
 26 27  1  0  0  0  0
 27 28  2  0  0  0  0
 28 29  1  0  0  0  0
 29 30  2  0  0  0  0
M  END
> <DRUGBANK_ID>
DB07991

> <DRUG_GROUPS>
experimental

> <GENERIC_NAME>
N-[(1R)-3-(4-HYDROXYPHENYL)-1-METHYLPROPYL]-2-(2-PHENYL-1H-INDOL-3-YL)ACETAMIDE

> <CHEMICAL_FORMULA>
C26H26N2O2

> <MOLECULAR_WEIGHT>
398.4968

> <EXACT_MASS>
398.199428086

> <IUPAC_NAME>
N-[(2R)-4-(4-hydroxyphenyl)butan-2-yl]-2-(2-phenyl-1H-indol-3-yl)acetamide

> <IUPAC_TRADITIONAL_NAME>
N-[(2R)-4-(4-hydroxyphenyl)butan-2-yl]-2-(2-phenyl-1H-indol-3-yl)acetamide

> <INCHI_IDENTIFIER>
InChI=1S/C26H26N2O2/c1-18(11-12-19-13-15-21(29)16-14-19)27-25(30)17-23-22-9-5-6-10-24(22)28-26(23)20-7-3-2-4-8-20/h2-10,13-16,18,28-29H,11-12,17H2,1H3,(H,27,30)/t18-/m1/s1

> <INCHI_KEY>
InChIKey=APLJSSOXDWUNGV-GOSISDBHSA-N

> <SMILES>
[H][C@@](C)(CCC1=CC=C(O)C=C1)NC(=O)CC1=C(NC2=C1C=CC=C2)C1=CC=CC=C1

> <JCHEM_ACCEPTOR_COUNT>
2

> <JCHEM_DONOR_COUNT>
3

> <JCHEM_ACIDIC_PKA>
9.51

> <JCHEM_BASIC_PKA>
-1.7

> <JCHEM_PHYSIOLOGICAL_CHARGE>
0

> <ALOGPS_LOGP>
5.09

> <JCHEM_LOGP>
5.26

> <ALOGPS_LOGS>
-6.1

> <JCHEM_POLARIZABILITY>
44.86

> <JCHEM_POLAR_SURFACE_AREA>
65.12

> <JCHEM_REFRACTIVITY>
120.55

> <JCHEM_ROTATABLE_BOND_COUNT>
7

> <ALOGPS_SOLUBILITY>
3.22e-04 g/l __ 

$$$$
