F18
  Mrv0541 02241213372D          

 16 17  0  0  0  0            999 V2000
   -0.4563    2.4321    0.0000 C   0  0  0  0  0  0  0  0  0  0  0  0
    0.2582    2.0196    0.0000 C   0  0  0  0  0  0  0  0  0  0  0  0
    0.2582    1.1946    0.0000 C   0  0  0  0  0  0  0  0  0  0  0  0
   -0.4563    3.2571    0.0000 O   0  0  0  0  0  0  0  0  0  0  0  0
   -0.4563    0.7821    0.0000 C   0  0  0  0  0  0  0  0  0  0  0  0
   -1.1708    1.1946    0.0000 C   0  0  0  0  0  0  0  0  0  0  0  0
   -1.1708    2.0196    0.0000 C   0  0  0  0  0  0  0  0  0  0  0  0
   -0.4563   -0.0429    0.0000 N   0  0  0  0  0  0  0  0  0  0  0  0
    0.2582   -0.4554    0.0000 N   0  0  0  0  0  0  0  0  0  0  0  0
    0.2582   -1.2804    0.0000 C   0  0  0  0  0  0  0  0  0  0  0  0
    0.9256   -1.7653    0.0000 C   0  0  0  0  0  0  0  0  0  0  0  0
    1.7102   -1.5104    0.0000 N   0  0  0  0  0  0  0  0  0  0  0  0
    0.6707   -2.5500    0.0000 N   0  0  0  0  0  0  0  0  0  0  0  0
   -0.1543   -2.5500    0.0000 N   0  0  0  0  0  0  0  0  0  0  0  0
   -0.4093   -1.7653    0.0000 C   0  0  0  0  0  0  0  0  0  0  0  0
   -1.1939   -1.5104    0.0000 N   0  0  0  0  0  0  0  0  0  0  0  0
  1  2  1  0  0  0  0
  1  4  1  0  0  0  0
  1  7  2  0  0  0  0
  2  3  2  0  0  0  0
  3  5  1  0  0  0  0
  5  6  2  0  0  0  0
  5  8  1  0  0  0  0
  6  7  1  0  0  0  0
  8  9  2  0  0  0  0
  9 10  1  0  0  0  0
 10 11  2  0  0  0  0
 10 15  1  0  0  0  0
 11 12  1  0  0  0  0
 11 13  1  0  0  0  0
 13 14  1  0  0  0  0
 14 15  2  0  0  0  0
 15 16  1  0  0  0  0
M  END
> <DRUGBANK_ID>
DB07731

> <DRUG_GROUPS>
experimental

> <GENERIC_NAME>
4-[(E)-(3,5-DIAMINO-1H-PYRAZOL-4-YL)DIAZENYL]PHENOL

> <CHEMICAL_FORMULA>
C9H10N6O

> <MOLECULAR_WEIGHT>
218.2153

> <EXACT_MASS>
218.091608972

> <IUPAC_NAME>
4-[(E)-2-(3,5-diamino-1H-pyrazol-4-yl)diazen-1-yl]phenol

> <IUPAC_TRADITIONAL_NAME>
4-[(E)-2-(3,5-diamino-1H-pyrazol-4-yl)diazen-1-yl]phenol

> <INCHI_IDENTIFIER>
InChI=1S/C9H10N6O/c10-8-7(9(11)15-14-8)13-12-5-1-3-6(16)4-2-5/h1-4,16H,(H5,10,11,14,15)/b13-12+

> <INCHI_KEY>
InChIKey=AYZRKFOEZQBUEA-OUKQBFOZSA-N

> <SMILES>
NC1=C(\N=N\C2=CC=C(O)C=C2)C(N)=NN1

> <JCHEM_ACCEPTOR_COUNT>
6

> <JCHEM_DONOR_COUNT>
4

> <JCHEM_ACIDIC_PKA>
8.4

> <JCHEM_BASIC_PKA>
4.09

> <JCHEM_PHYSIOLOGICAL_CHARGE>
0

> <ALOGPS_LOGP>
1.96

> <JCHEM_LOGP>
1.41

> <ALOGPS_LOGS>
-2.7

> <JCHEM_POLARIZABILITY>
21.67

> <JCHEM_POLAR_SURFACE_AREA>
125.67

> <JCHEM_REFRACTIVITY>
65.01

> <JCHEM_ROTATABLE_BOND_COUNT>
2

> <ALOGPS_SOLUBILITY>
4.24e-01 g/l __ 

$$$$
