B2F
  Mrv0541 02241213252D          

 13 13  0  0  0  0            999 V2000
   -0.1554    1.2074    0.0000 N   0  0  0  0  0  0  0  0  0  0  0  0
    0.5591    0.7949    0.0000 C   0  0  1  0  0  0  0  0  0  0  0  0
    0.5591   -0.0301    0.0000 C   0  0  0  0  0  0  0  0  0  0  0  0
   -0.1554   -0.4426    0.0000 C   0  0  0  0  0  0  0  0  0  0  0  0
   -0.1554   -1.2676    0.0000 C   0  0  0  0  0  0  0  0  0  0  0  0
   -0.8699   -0.0301    0.0000 C   0  0  0  0  0  0  0  0  0  0  0  0
   -0.8699   -1.6801    0.0000 C   0  0  0  0  0  0  0  0  0  0  0  0
   -1.5843   -0.4426    0.0000 C   0  0  0  0  0  0  0  0  0  0  0  0
   -1.5843   -1.2676    0.0000 C   0  0  0  0  0  0  0  0  0  0  0  0
    1.2736    1.2074    0.0000 B   0  0  0  0  0  0  0  0  0  0  0  0
    1.2736    2.0324    0.0000 O   0  0  0  0  0  0  0  0  0  0  0  0
    1.9880    0.7949    0.0000 O   0  0  0  0  0  0  0  0  0  0  0  0
    0.0534    0.5030    0.0000 H   0  0  0  0  0  0  0  0  0  0  0  0
  2  1  1  6  0  0  0
  2  3  1  0  0  0  0
  2 10  1  0  0  0  0
  2 13  1  1  0  0  0
  3  4  1  0  0  0  0
  4  5  2  0  0  0  0
  4  6  1  0  0  0  0
  5  7  1  0  0  0  0
  6  8  2  0  0  0  0
  7  9  2  0  0  0  0
  8  9  1  0  0  0  0
 10 11  1  0  0  0  0
 10 12  1  0  0  0  0
M  END
> <DRUGBANK_ID>
DB07411

> <DRUG_GROUPS>
experimental

> <GENERIC_NAME>
PHENYLALANINE BORONIC ACID

> <CHEMICAL_FORMULA>
C8H12BNO2

> <MOLECULAR_WEIGHT>
164.997

> <EXACT_MASS>
165.096109099

> <IUPAC_NAME>
[(1R)-1-amino-2-phenylethyl]boronic acid

> <IUPAC_TRADITIONAL_NAME>
(1R)-1-amino-2-phenylethylboronic acid

> <INCHI_IDENTIFIER>
InChI=1S/C8H12BNO2/c10-8(9(11)12)6-7-4-2-1-3-5-7/h1-5,8,11-12H,6,10H2/t8-/m0/s1

> <INCHI_KEY>
InChIKey=OAZCLPVPUZOYGA-QMMMGPOBSA-N

> <SMILES>
[H][C@](N)(CC1=CC=CC=C1)B(O)O

> <JCHEM_ACCEPTOR_COUNT>
3

> <JCHEM_DONOR_COUNT>
3

> <JCHEM_BASIC_PKA>
9.08

> <JCHEM_PHYSIOLOGICAL_CHARGE>
1

> <ALOGPS_LOGP>
0.4

> <JCHEM_LOGP>
1.54

> <ALOGPS_LOGS>
-1.9

> <JCHEM_POLARIZABILITY>
18.22

> <JCHEM_POLAR_SURFACE_AREA>
66.48

> <JCHEM_REFRACTIVITY>
42.97

> <JCHEM_ROTATABLE_BOND_COUNT>
3

> <ALOGPS_SOLUBILITY>
1.84e+00 g/l __ 

$$$$
