GG5
  Mrv0541 02241213402D          

 18 20  0  0  0  0            999 V2000
    0.5645    1.7703    0.0000 C   0  0  0  0  0  0  0  0  0  0  0  0
   -0.1500    2.1828    0.0000 N   0  0  0  0  0  0  0  0  0  0  0  0
   -0.8644    1.7703    0.0000 C   0  0  0  0  0  0  0  0  0  0  0  0
   -0.8644    0.9453    0.0000 C   0  0  0  0  0  0  0  0  0  0  0  0
   -0.1500    0.5328    0.0000 C   0  0  0  0  0  0  0  0  0  0  0  0
    0.5645    0.9453    0.0000 C   0  0  0  0  0  0  0  0  0  0  0  0
   -0.1500   -0.2922    0.0000 C   0  0  0  0  0  0  0  0  0  0  0  0
   -0.8174   -0.7771    0.0000 C   0  0  0  0  0  0  0  0  0  0  0  0
   -0.5625   -1.5618    0.0000 N   0  0  0  0  0  0  0  0  0  0  0  0
    0.2625   -1.5618    0.0000 N   0  0  0  0  0  0  0  0  0  0  0  0
    0.5175   -0.7771    0.0000 C   0  0  0  0  0  0  0  0  0  0  0  0
    1.3021   -0.5222    0.0000 C   0  0  0  0  0  0  0  0  0  0  0  0
    1.4736    0.2848    0.0000 C   0  0  0  0  0  0  0  0  0  0  0  0
    2.2582    0.5397    0.0000 C   0  0  0  0  0  0  0  0  0  0  0  0
    2.8713   -0.0123    0.0000 C   0  0  0  0  0  0  0  0  0  0  0  0
    2.6998   -0.8193    0.0000 C   0  0  0  0  0  0  0  0  0  0  0  0
    1.9152   -1.0742    0.0000 C   0  0  0  0  0  0  0  0  0  0  0  0
    3.6560    0.2426    0.0000 F   0  0  0  0  0  0  0  0  0  0  0  0
  1  6  2  0  0  0  0
  1  2  1  0  0  0  0
  2  3  2  0  0  0  0
  3  4  1  0  0  0  0
  4  5  2  0  0  0  0
  5  6  1  0  0  0  0
  5  7  1  0  0  0  0
  7 11  1  0  0  0  0
  7  8  2  0  0  0  0
  8  9  1  0  0  0  0
  9 10  1  0  0  0  0
 10 11  2  0  0  0  0
 11 12  1  0  0  0  0
 12 13  2  0  0  0  0
 12 17  1  0  0  0  0
 13 14  1  0  0  0  0
 14 15  2  0  0  0  0
 15 18  1  0  0  0  0
 15 16  1  0  0  0  0
 16 17  2  0  0  0  0
M  END
> <DRUGBANK_ID>
DB07829

> <DRUG_GROUPS>
experimental

> <GENERIC_NAME>
4-[3-(4-FLUOROPHENYL)-1H-PYRAZOL-4-YL]PYRIDINE

> <CHEMICAL_FORMULA>
C14H10FN3

> <MOLECULAR_WEIGHT>
239.2477

> <EXACT_MASS>
239.08587554

> <IUPAC_NAME>
4-[3-(4-fluorophenyl)-1H-pyrazol-4-yl]pyridine

> <IUPAC_TRADITIONAL_NAME>
4-[3-(4-fluorophenyl)-1H-pyrazol-4-yl]pyridine

> <INCHI_IDENTIFIER>
InChI=1S/C14H10FN3/c15-12-3-1-11(2-4-12)14-13(9-17-18-14)10-5-7-16-8-6-10/h1-9H,(H,17,18)

> <INCHI_KEY>
InChIKey=BILJSHVAAVZERY-UHFFFAOYSA-N

> <SMILES>
FC1=CC=C(C=C1)C1=NNC=C1C1=CC=NC=C1

> <JCHEM_ACCEPTOR_COUNT>
2

> <JCHEM_DONOR_COUNT>
1

> <JCHEM_ACIDIC_PKA>
14.96

> <JCHEM_BASIC_PKA>
4.28

> <JCHEM_PHYSIOLOGICAL_CHARGE>
0

> <ALOGPS_LOGP>
3.04

> <JCHEM_LOGP>
2.88

> <ALOGPS_LOGS>
-3.4

> <JCHEM_POLARIZABILITY>
23.52

> <JCHEM_POLAR_SURFACE_AREA>
41.57

> <JCHEM_REFRACTIVITY>
67.71

> <JCHEM_ROTATABLE_BOND_COUNT>
2

> <ALOGPS_SOLUBILITY>
8.89e-02 g/l __ 

$$$$
