FRX
  Mrv0541 02241213392D          

 31 34  0  0  0  0            999 V2000
    1.6973   -2.0477    0.0000 O    0  0  0  0  0  0  0  0  0  0  0  0
    1.6973   -2.8727    0.0000 C    0  0  0  0  0  0  0  0  0  0  0  0
    2.4118   -3.2852    0.0000 N    0  0  0  0  0  0  0  0  0  0  0  0
    3.1263   -2.8727    0.0000 C    0  0  0  0  0  0  0  0  0  0  0  0
    3.8407   -3.2852    0.0000 C    0  0  0  0  0  0  0  0  0  0  0  0
    4.5552   -2.8727    0.0000 O    0  0  0  0  0  0  0  0  0  0  0  0
    0.9828   -3.2852    0.0000 C    0  0  0  0  0  0  0  0  0  0  0  0
    0.2684   -2.8727    0.0000 N    0  0  0  0  0  0  0  0  0  0  0  0
   -0.4461   -3.2852    0.0000 C    0  0  0  0  0  0  0  0  0  0  0  0
   -0.4461   -4.1102    0.0000 O    0  0  0  0  0  0  0  0  0  0  0  0
    0.2684   -2.0477    0.0000 C    0  0  0  0  0  0  0  0  0  0  0  0
    0.9828   -1.6352    0.0000 C    0  0  0  0  0  0  0  0  0  0  0  0
    0.9828   -0.8102    0.0000 C    0  0  0  0  0  0  0  0  0  0  0  0
    0.2684   -0.3977    0.0000 C    0  0  0  0  0  0  0  0  0  0  0  0
   -0.4461   -1.6352    0.0000 C    0  0  0  0  0  0  0  0  0  0  0  0
   -0.4461   -0.8102    0.0000 C    0  0  0  0  0  0  0  0  0  0  0  0
   -1.1606   -2.0477    0.0000 C    0  0  0  0  0  0  0  0  0  0  0  0
   -1.1606   -2.8727    0.0000 C    0  0  2  0  0  0  0  0  0  0  0  0
   -1.8750   -3.2852    0.0000 N    0  0  0  0  0  0  0  0  0  0  0  0
   -1.8750   -4.1102    0.0000 C    0  0  0  0  0  0  0  0  0  0  0  0
   -1.1606   -4.5227    0.0000 O    0  0  0  0  0  0  0  0  0  0  0  0
   -2.5895   -4.5227    0.0000 C    0  0  0  0  0  0  0  0  0  0  0  0
   -3.3432   -4.1871    0.0000 N    0  0  0  0  0  0  0  0  0  0  0  0
   -3.8952   -4.8002    0.0000 C    0  0  0  0  0  0  0  0  0  0  0  0
   -3.4827   -5.5147    0.0000 C    0  0  0  0  0  0  0  0  0  0  0  0
   -2.6758   -5.3431    0.0000 C    0  0  0  0  0  0  0  0  0  0  0  0
   -4.0348   -6.1278    0.0000 C    0  0  0  0  0  0  0  0  0  0  0  0
   -4.7022   -4.9717    0.0000 S    0  0  0  0  0  0  0  0  0  0  0  0
   -4.7884   -5.7922    0.0000 C    0  0  0  0  0  0  0  0  0  0  0  0
   -5.5029   -6.2047    0.0000 Cl   0  0  0  0  0  0  0  0  0  0  0  0
   -1.1606   -3.4566    0.0000 H    0  0  0  0  0  0  0  0  0  0  0  0
  1  2  2  0  0  0  0
  2  7  1  0  0  0  0
  2  3  1  0  0  0  0
  3  4  1  0  0  0  0
  4  5  1  0  0  0  0
  5  6  1  0  0  0  0
  7  8  1  0  0  0  0
  8 11  1  0  0  0  0
  8  9  1  0  0  0  0
  9 18  1  0  0  0  0
  9 10  2  0  0  0  0
 11 15  2  0  0  0  0
 11 12  1  0  0  0  0
 12 13  2  0  0  0  0
 13 14  1  0  0  0  0
 14 16  2  0  0  0  0
 15 16  1  0  0  0  0
 15 17  1  0  0  0  0
 17 18  1  0  0  0  0
 18 19  1  1  0  0  0
 18 31  1  6  0  0  0
 19 20  1  0  0  0  0
 20 22  1  0  0  0  0
 20 21  2  0  0  0  0
 22 26  2  0  0  0  0
 22 23  1  0  0  0  0
 23 24  1  0  0  0  0
 24 25  2  0  0  0  0
 24 28  1  0  0  0  0
 25 27  1  0  0  0  0
 25 26  1  0  0  0  0
 27 29  2  0  0  0  0
 28 29  1  0  0  0  0
 29 30  1  0  0  0  0
M  END
> <DRUGBANK_ID>
DB07792

> <DRUG_GROUPS>
experimental

> <GENERIC_NAME>
(S)-2-CHLORO-N-(1-(2-(2-HYDROXYETHYLAMINO)-2-OXOETHYL)-2-OXO-1,2,3,4-TETRAHYDROQUINOLIN-3-YL)-6H-THIENO[2,3-B]PYRROLE-5-CARBOXAMIDE

> <CHEMICAL_FORMULA>
C20H19ClN4O4S

> <MOLECULAR_WEIGHT>
446.907

> <EXACT_MASS>
446.081553513

> <IUPAC_NAME>
2-chloro-N-[(3S)-1-{[(2-hydroxyethyl)carbamoyl]methyl}-2-oxo-1,2,3,4-tetrahydroquinolin-3-yl]-6H-thieno[2,3-b]pyrrole-5-carboxamide

> <IUPAC_TRADITIONAL_NAME>
2-chloro-N-[(3S)-1-{[(2-hydroxyethyl)carbamoyl]methyl}-2-oxo-3,4-dihydroquinolin-3-yl]-6H-thieno[2,3-b]pyrrole-5-carboxamide

> <INCHI_IDENTIFIER>
InChI=1S/C20H19ClN4O4S/c21-16-9-12-8-13(24-19(12)30-16)18(28)23-14-7-11-3-1-2-4-15(11)25(20(14)29)10-17(27)22-5-6-26/h1-4,8-9,14,24,26H,5-7,10H2,(H,22,27)(H,23,28)/t14-/m0/s1

> <INCHI_KEY>
InChIKey=VUKPNWLGSLOHIF-AWEZNQCLSA-N

> <SMILES>
[H][C@@]1(CC2=C(C=CC=C2)N(CC(=O)NCCO)C1=O)NC(=O)C1=CC2=C(N1)SC(Cl)=C2

> <JCHEM_ACCEPTOR_COUNT>
4

> <JCHEM_DONOR_COUNT>
4

> <JCHEM_ACIDIC_PKA>
9.29

> <JCHEM_BASIC_PKA>
-2

> <JCHEM_PHYSIOLOGICAL_CHARGE>
0

> <ALOGPS_LOGP>
1.81

> <JCHEM_LOGP>
1.2

> <ALOGPS_LOGS>
-4.8

> <JCHEM_POLARIZABILITY>
45.47

> <JCHEM_POLAR_SURFACE_AREA>
114.53

> <JCHEM_REFRACTIVITY>
110.62

> <JCHEM_ROTATABLE_BOND_COUNT>
6

> <ALOGPS_SOLUBILITY>
7.12e-03 g/l __ 

$$$$
