BO2
  Mrv0541 02241213272D          

 30 31  0  0  0  0            999 V2000
   -3.4921   -0.0245    0.0000 N   0  0  0  0  0  0  0  0  0  0  0  0
   -2.7777   -0.4370    0.0000 C   0  0  0  0  0  0  0  0  0  0  0  0
   -2.7777   -1.2620    0.0000 C   0  0  0  0  0  0  0  0  0  0  0  0
   -3.4921   -1.6745    0.0000 N   0  0  0  0  0  0  0  0  0  0  0  0
   -4.2066   -1.2620    0.0000 C   0  0  0  0  0  0  0  0  0  0  0  0
   -4.2066   -0.4370    0.0000 C   0  0  0  0  0  0  0  0  0  0  0  0
   -2.0632   -0.0245    0.0000 C   0  0  0  0  0  0  0  0  0  0  0  0
   -2.0632    0.8005    0.0000 O   0  0  0  0  0  0  0  0  0  0  0  0
   -1.3487   -0.4370    0.0000 N   0  0  0  0  0  0  0  0  0  0  0  0
   -0.6342   -0.0245    0.0000 C   0  0  1  0  0  0  0  0  0  0  0  0
   -0.6342    0.8005    0.0000 C   0  0  0  0  0  0  0  0  0  0  0  0
    0.0802    1.2130    0.0000 C   0  0  0  0  0  0  0  0  0  0  0  0
    0.0802    2.0380    0.0000 C   0  0  0  0  0  0  0  0  0  0  0  0
    0.7947    2.4505    0.0000 C   0  0  0  0  0  0  0  0  0  0  0  0
    1.5092    2.0380    0.0000 C   0  0  0  0  0  0  0  0  0  0  0  0
    1.5092    1.2130    0.0000 C   0  0  0  0  0  0  0  0  0  0  0  0
    0.7947    0.8005    0.0000 C   0  0  0  0  0  0  0  0  0  0  0  0
    0.0802   -0.4370    0.0000 C   0  0  0  0  0  0  0  0  0  0  0  0
    0.0802   -1.2620    0.0000 O   0  0  0  0  0  0  0  0  0  0  0  0
    0.7947   -0.0245    0.0000 N   0  0  0  0  0  0  0  0  0  0  0  0
    1.5092   -0.4370    0.0000 C   0  0  1  0  0  0  0  0  0  0  0  0
    2.2236   -0.0245    0.0000 C   0  0  0  0  0  0  0  0  0  0  0  0
    2.9381   -0.4370    0.0000 C   0  0  0  0  0  0  0  0  0  0  0  0
    3.6526   -0.0245    0.0000 C   0  0  0  0  0  0  0  0  0  0  0  0
    2.9381   -1.2620    0.0000 C   0  0  0  0  0  0  0  0  0  0  0  0
    1.5092   -1.2620    0.0000 B   0  0  0  0  0  0  0  0  0  0  0  0
    2.2236   -1.6745    0.0000 O   0  0  0  0  0  0  0  0  0  0  0  0
    0.7947   -1.6745    0.0000 O   0  0  0  0  0  0  0  0  0  0  0  0
   -1.1399    0.2675    0.0000 H   0  0  0  0  0  0  0  0  0  0  0  0
    1.5092    0.1469    0.0000 H   0  0  0  0  0  0  0  0  0  0  0  0
  1  2  1  0  0  0  0
  1  6  2  0  0  0  0
  2  3  2  0  0  0  0
  2  7  1  0  0  0  0
  3  4  1  0  0  0  0
  4  5  2  0  0  0  0
  5  6  1  0  0  0  0
  7  8  2  0  0  0  0
  7  9  1  0  0  0  0
 10  9  1  1  0  0  0
 10 11  1  0  0  0  0
 10 18  1  0  0  0  0
 10 29  1  6  0  0  0
 11 12  1  0  0  0  0
 12 13  1  0  0  0  0
 12 17  2  0  0  0  0
 13 14  2  0  0  0  0
 14 15  1  0  0  0  0
 15 16  2  0  0  0  0
 16 17  1  0  0  0  0
 18 19  2  0  0  0  0
 18 20  1  0  0  0  0
 20 21  1  0  0  0  0
 21 22  1  0  0  0  0
 21 26  1  6  0  0  0
 21 30  1  6  0  0  0
 22 23  1  0  0  0  0
 23 24  1  0  0  0  0
 23 25  1  0  0  0  0
 26 27  1  0  0  0  0
 26 28  1  0  0  0  0
M  END
> <DRUGBANK_ID>
DB07475

> <DRUG_GROUPS>
experimental

> <GENERIC_NAME>
N-[(1R)-1-(DIHYDROXYBORYL)-3-METHYLBUTYL]-N-(PYRAZIN-2-YLCARBONYL)-L-PHENYLALANINAMIDE

> <CHEMICAL_FORMULA>
C19H25BN4O4

> <MOLECULAR_WEIGHT>
384.237

> <EXACT_MASS>
384.196885774

> <IUPAC_NAME>
[(1R)-3-methyl-1-[(2S)-3-phenyl-2-(pyrazin-2-ylformamido)propanamido]butyl]boronic acid

> <IUPAC_TRADITIONAL_NAME>
(1R)-3-methyl-1-[(2S)-3-phenyl-2-(pyrazin-2-ylformamido)propanamido]butylboronic acid

> <INCHI_IDENTIFIER>
InChI=1S/C19H25BN4O4/c1-13(2)10-17(20(27)28)24-18(25)15(11-14-6-4-3-5-7-14)23-19(26)16-12-21-8-9-22-16/h3-9,12-13,15,17,27-28H,10-11H2,1-2H3,(H,23,26)(H,24,25)/t15-,17-/m0/s1

> <INCHI_KEY>
InChIKey=GXJABQQUPOEUTA-RDJZCZTQSA-N

> <SMILES>
[H][C@@](CC(C)C)(NC(=O)[C@]([H])(CC1=CC=CC=C1)NC(=O)C1=CN=CC=N1)B(O)O

> <JCHEM_ACCEPTOR_COUNT>
6

> <JCHEM_DONOR_COUNT>
4

> <JCHEM_ACIDIC_PKA>
13.04

> <JCHEM_BASIC_PKA>
-0.7

> <JCHEM_PHYSIOLOGICAL_CHARGE>
0

> <ALOGPS_LOGP>
0.89

> <JCHEM_LOGP>
1.53

> <ALOGPS_LOGS>
-3.9

> <JCHEM_POLARIZABILITY>
40.6

> <JCHEM_POLAR_SURFACE_AREA>
124.44

> <JCHEM_REFRACTIVITY>
99.37

> <JCHEM_ROTATABLE_BOND_COUNT>
9

> <ALOGPS_SOLUBILITY>
5.32e-02 g/l __ 

$$$$
