D4G
  Mrv0541 02241213322D          

 14 15  0  0  0  0            999 V2000
    1.7862    0.4470    0.0000 C   0  0  0  0  0  0  0  0  0  0  0  0
    2.5006    0.0345    0.0000 C   0  0  0  0  0  0  0  0  0  0  0  0
    2.5006   -0.7905    0.0000 N   0  0  0  0  0  0  0  0  0  0  0  0
    1.7862   -1.2030    0.0000 C   0  0  0  0  0  0  0  0  0  0  0  0
    1.0717   -0.7905    0.0000 C   0  0  0  0  0  0  0  0  0  0  0  0
    1.0717    0.0345    0.0000 C   0  0  0  0  0  0  0  0  0  0  0  0
    0.3572    0.4470    0.0000 S   0  0  0  0  0  0  0  0  0  0  0  0
   -0.3572    0.0345    0.0000 S   0  0  0  0  0  0  0  0  0  0  0  0
   -1.0717    0.4470    0.0000 C   0  0  0  0  0  0  0  0  0  0  0  0
   -1.7862    0.0345    0.0000 C   0  0  0  0  0  0  0  0  0  0  0  0
   -2.5006    0.4470    0.0000 C   0  0  0  0  0  0  0  0  0  0  0  0
   -2.5006    1.2720    0.0000 N   0  0  0  0  0  0  0  0  0  0  0  0
   -1.7862    1.6845    0.0000 C   0  0  0  0  0  0  0  0  0  0  0  0
   -1.0717    1.2720    0.0000 C   0  0  0  0  0  0  0  0  0  0  0  0
  1  2  1  0  0  0  0
  1  6  2  0  0  0  0
  2  3  2  0  0  0  0
  3  4  1  0  0  0  0
  4  5  2  0  0  0  0
  5  6  1  0  0  0  0
  6  7  1  0  0  0  0
  7  8  1  0  0  0  0
  8  9  1  0  0  0  0
  9 10  1  0  0  0  0
  9 14  2  0  0  0  0
 10 11  2  0  0  0  0
 11 12  1  0  0  0  0
 12 13  2  0  0  0  0
 13 14  1  0  0  0  0
M  END
> <DRUGBANK_ID>
DB07623

> <DRUG_GROUPS>
experimental

> <GENERIC_NAME>
4,4'-DIPYRIDYL DISULFIDE

> <CHEMICAL_FORMULA>
C10H8N2S2

> <MOLECULAR_WEIGHT>
220.314

> <EXACT_MASS>
220.012889646

> <IUPAC_NAME>
4-(pyridin-4-yldisulfanyl)pyridine

> <IUPAC_TRADITIONAL_NAME>
4-(pyridin-4-yldisulfanyl)pyridine

> <INCHI_IDENTIFIER>
InChI=1S/C10H8N2S2/c1-5-11-6-2-9(1)13-14-10-3-7-12-8-4-10/h1-8H

> <INCHI_KEY>
InChIKey=UHBAPGWWRFVTFS-UHFFFAOYSA-N

> <SMILES>
S(SC1=CC=NC=C1)C1=CC=NC=C1

> <JCHEM_ACCEPTOR_COUNT>
2

> <JCHEM_DONOR_COUNT>
0

> <JCHEM_BASIC_PKA>
4.6

> <JCHEM_PHYSIOLOGICAL_CHARGE>
0

> <ALOGPS_LOGP>
2.16

> <JCHEM_LOGP>
2.14

> <ALOGPS_LOGS>
-3.1

> <JCHEM_POLARIZABILITY>
21.46

> <JCHEM_POLAR_SURFACE_AREA>
25.78

> <JCHEM_REFRACTIVITY>
58.15

> <JCHEM_ROTATABLE_BOND_COUNT>
3

> <ALOGPS_SOLUBILITY>
1.92e-01 g/l __ 

$$$$
