DJK
  Mrv0541 02241213342D          

 23 25  0  0  0  0            999 V2000
   -2.8991    0.7342    0.0000 C    0  0  0  0  0  0  0  0  0  0  0  0
   -2.1846    0.3217    0.0000 C    0  0  0  0  0  0  0  0  0  0  0  0
   -1.4701    0.7342    0.0000 C    0  0  0  0  0  0  0  0  0  0  0  0
   -1.4701    1.5592    0.0000 O    0  0  0  0  0  0  0  0  0  0  0  0
   -0.7557    0.3217    0.0000 N    0  0  0  0  0  0  0  0  0  0  0  0
   -0.0412    0.7342    0.0000 C    0  0  0  0  0  0  0  0  0  0  0  0
    0.6733    0.3217    0.0000 C    0  0  0  0  0  0  0  0  0  0  0  0
   -0.0412    1.5592    0.0000 C    0  0  0  0  0  0  0  0  0  0  0  0
    0.6733    1.9717    0.0000 C    0  0  0  0  0  0  0  0  0  0  0  0
    1.3878    1.5592    0.0000 C    0  0  0  0  0  0  0  0  0  0  0  0
    1.3878    0.7342    0.0000 C    0  0  0  0  0  0  0  0  0  0  0  0
    2.1022    0.3217    0.0000 C    0  0  0  0  0  0  0  0  0  0  0  0
    2.8167    0.7342    0.0000 N    0  0  0  0  0  0  0  0  0  0  0  0
    2.8167    1.5592    0.0000 C    0  0  0  0  0  0  0  0  0  0  0  0
    2.1022    1.9717    0.0000 N    0  0  0  0  0  0  0  0  0  0  0  0
    2.1022   -0.5033    0.0000 N    0  0  0  0  0  0  0  0  0  0  0  0
    2.8167   -0.9158    0.0000 C    0  0  0  0  0  0  0  0  0  0  0  0
    3.5312   -0.5033    0.0000 C    0  0  0  0  0  0  0  0  0  0  0  0
    2.8167   -1.7408    0.0000 C    0  0  0  0  0  0  0  0  0  0  0  0
    3.5312   -2.1533    0.0000 C    0  0  0  0  0  0  0  0  0  0  0  0
    4.2456   -1.7408    0.0000 C    0  0  0  0  0  0  0  0  0  0  0  0
    4.2456   -0.9158    0.0000 C    0  0  0  0  0  0  0  0  0  0  0  0
    4.9601   -0.5033    0.0000 Br   0  0  0  0  0  0  0  0  0  0  0  0
  1  2  2  0  0  0  0
  2  3  1  0  0  0  0
  3  4  2  0  0  0  0
  3  5  1  0  0  0  0
  5  6  1  0  0  0  0
  6  7  2  0  0  0  0
  6  8  1  0  0  0  0
  7 11  1  0  0  0  0
  8  9  2  0  0  0  0
  9 10  1  0  0  0  0
 10 15  2  0  0  0  0
 10 11  1  0  0  0  0
 11 12  2  0  0  0  0
 12 13  1  0  0  0  0
 12 16  1  0  0  0  0
 13 14  2  0  0  0  0
 14 15  1  0  0  0  0
 16 17  1  0  0  0  0
 17 18  2  0  0  0  0
 17 19  1  0  0  0  0
 18 22  1  0  0  0  0
 19 20  2  0  0  0  0
 20 21  1  0  0  0  0
 21 22  2  0  0  0  0
 22 23  1  0  0  0  0
M  END
> <DRUGBANK_ID>
DB07662

> <DRUG_GROUPS>
experimental

> <GENERIC_NAME>
N-[4-(3-BROMO-PHENYLAMINO)-QUINAZOLIN-6-YL]-ACRYLAMIDE

> <CHEMICAL_FORMULA>
C17H13BrN4O

> <MOLECULAR_WEIGHT>
369.215

> <EXACT_MASS>
368.027273705

> <IUPAC_NAME>
N-{4-[(3-bromophenyl)amino]quinazolin-6-yl}prop-2-enamide

> <IUPAC_TRADITIONAL_NAME>
N-{4-[(3-bromophenyl)amino]quinazolin-6-yl}prop-2-enamide

> <INCHI_IDENTIFIER>
InChI=1S/C17H13BrN4O/c1-2-16(23)21-13-6-7-15-14(9-13)17(20-10-19-15)22-12-5-3-4-11(18)8-12/h2-10H,1H2,(H,21,23)(H,19,20,22)

> <INCHI_KEY>
InChIKey=HTUBKQUPEREOGA-UHFFFAOYSA-N

> <SMILES>
BrC1=CC=CC(NC2=C3C=C(NC(=O)C=C)C=CC3=NC=N2)=C1

> <JCHEM_ACCEPTOR_COUNT>
4

> <JCHEM_DONOR_COUNT>
2

> <JCHEM_ACIDIC_PKA>
14.42

> <JCHEM_BASIC_PKA>
3.97

> <JCHEM_PHYSIOLOGICAL_CHARGE>
0

> <ALOGPS_LOGP>
3.49

> <JCHEM_LOGP>
4.22

> <ALOGPS_LOGS>
-4.7

> <JCHEM_POLARIZABILITY>
34.85

> <JCHEM_POLAR_SURFACE_AREA>
66.91

> <JCHEM_REFRACTIVITY>
94.73

> <JCHEM_ROTATABLE_BOND_COUNT>
4

> <ALOGPS_SOLUBILITY>
8.07e-03 g/l __ 

$$$$
