H11
  Mrv0541 02241213422D          

 19 20  0  0  0  0            999 V2000
    1.1066   -0.5559    0.0000 C   0  0  0  0  0  0  0  0  0  0  0  0
    0.9671    1.3267    0.0000 C   0  0  0  0  0  0  0  0  0  0  0  0
    2.0712    1.3267    0.0000 C   0  0  0  0  0  0  0  0  0  0  0  0
   -0.1988   -1.1371    0.0000 C   0  0  0  0  0  0  0  0  0  0  0  0
   -0.5924   -1.8621    0.0000 C   0  0  0  0  0  0  0  0  0  0  0  0
   -1.3835   -2.0964    0.0000 C   0  0  0  0  0  0  0  0  0  0  0  0
   -1.9491   -0.1867    0.0000 C   0  0  0  0  0  0  0  0  0  0  0  0
   -0.3919    1.7683    0.0000 C   0  0  0  0  0  0  0  0  0  0  0  0
   -2.1085   -1.7028    0.0000 C   0  0  0  0  0  0  0  0  0  0  0  0
   -2.3428   -0.9118    0.0000 C   0  0  0  0  0  0  0  0  0  0  0  0
   -1.1581    0.0476    0.0000 C   0  0  0  0  0  0  0  0  0  0  0  0
   -0.4331   -0.3461    0.0000 C   0  0  0  0  0  0  0  0  0  0  0  0
    0.6217   -1.2233    0.0000 N   0  0  0  0  0  0  0  0  0  0  0  0
    0.8517    0.2287    0.0000 S   0  0  0  0  0  0  0  0  0  0  0  0
    1.9316   -0.5559    0.0000 N   0  0  0  0  0  0  0  0  0  0  0  0
    2.1866    0.2287    0.0000 C   0  0  0  0  0  0  0  0  0  0  0  0
    2.9712    0.4837    0.0000 O   0  0  0  0  0  0  0  0  0  0  0  0
    1.5191    0.7136    0.0000 C   0  0  2  0  0  0  0  0  0  0  0  0
    0.1601    1.1552    0.0000 C   0  0  0  0  0  0  0  0  0  0  0  0
  1 13  1  0  0  0  0
  1 14  1  0  0  0  0
  1 15  2  0  0  0  0
 18  2  1  1  0  0  0
  2 19  1  0  0  0  0
 18  3  1  6  0  0  0
  4  5  1  0  0  0  0
  4 12  1  0  0  0  0
  4 13  1  0  0  0  0
  5  6  1  0  0  0  0
  6  9  1  0  0  0  0
  7 10  1  0  0  0  0
  7 11  1  0  0  0  0
  8 19  1  0  0  0  0
  9 10  1  0  0  0  0
 11 12  1  0  0  0  0
 14 18  1  0  0  0  0
 15 16  1  0  0  0  0
 16 17  2  0  0  0  0
 16 18  1  0  0  0  0
M  END
> <DRUGBANK_ID>
DB07866

> <DRUG_GROUPS>
experimental

> <GENERIC_NAME>
(5S)-2-(cyclooctylamino)-5-methyl-5-propyl-1,3-thiazol-4(5H)-one

> <CHEMICAL_FORMULA>
C15H26N2OS

> <MOLECULAR_WEIGHT>
282.445

> <EXACT_MASS>
282.176584154

> <IUPAC_NAME>
(5S)-2-(cyclooctylamino)-5-methyl-5-propyl-4,5-dihydro-1,3-thiazol-4-one

> <IUPAC_TRADITIONAL_NAME>
(5S)-2-(cyclooctylamino)-5-methyl-5-propyl-1,3-thiazol-4-one

> <INCHI_IDENTIFIER>
InChI=1S/C15H26N2OS/c1-3-11-15(2)13(18)17-14(19-15)16-12-9-7-5-4-6-8-10-12/h12H,3-11H2,1-2H3,(H,16,17,18)/t15-/m0/s1

> <INCHI_KEY>
InChIKey=SBTHYUAUBLEDJY-HNNXBMFYSA-N

> <SMILES>
CCC[C@]1(C)SC(NC2CCCCCCC2)=NC1=O

> <JCHEM_ACCEPTOR_COUNT>
3

> <JCHEM_DONOR_COUNT>
1

> <JCHEM_BASIC_PKA>
0.3

> <JCHEM_PHYSIOLOGICAL_CHARGE>
0

> <ALOGPS_LOGP>
4.63

> <JCHEM_LOGP>
4.27

> <ALOGPS_LOGS>
-4

> <JCHEM_POLARIZABILITY>
32.76

> <JCHEM_POLAR_SURFACE_AREA>
41.46

> <JCHEM_REFRACTIVITY>
80.84

> <JCHEM_ROTATABLE_BOND_COUNT>
3

> <ALOGPS_SOLUBILITY>
2.72e-02 g/l __ 

$$$$
