4PG
  Mrv0541 02241213132D          

 19 20  0  0  0  0            999 V2000
    0.8806    3.1230    0.0000 C   0  0  0  0  0  0  0  0  0  0  0  0
    0.1661    1.8855    0.0000 C   0  0  0  0  0  0  0  0  0  0  0  0
    0.8806    1.4730    0.0000 C   0  0  0  0  0  0  0  0  0  0  0  0
   -0.5484    1.4730    0.0000 C   0  0  0  0  0  0  0  0  0  0  0  0
    0.1661   -0.5895    0.0000 C   0  0  0  0  0  0  0  0  0  0  0  0
   -0.5484   -1.0020    0.0000 C   0  0  0  0  0  0  0  0  0  0  0  0
   -0.5484   -1.8270    0.0000 C   0  0  0  0  0  0  0  0  0  0  0  0
   -1.2629   -2.2395    0.0000 C   0  0  0  0  0  0  0  0  0  0  0  0
   -1.2629   -3.0645    0.0000 C   0  0  0  0  0  0  0  0  0  0  0  0
   -0.5484   -3.4770    0.0000 C   0  0  0  0  0  0  0  0  0  0  0  0
    0.1661   -3.0645    0.0000 C   0  0  0  0  0  0  0  0  0  0  0  0
    0.1661   -2.2395    0.0000 C   0  0  0  0  0  0  0  0  0  0  0  0
    0.1661    2.7105    0.0000 N   0  0  0  0  0  0  0  0  0  0  0  0
    0.8806    3.9480    0.0000 N   0  0  0  0  0  0  0  0  0  0  0  0
    1.5950    2.7105    0.0000 N   0  0  0  0  0  0  0  0  0  0  0  0
    0.8806    0.6480    0.0000 C   0  0  0  0  0  0  0  0  0  0  0  0
    0.1661    0.2355    0.0000 C   0  0  0  0  0  0  0  0  0  0  0  0
   -0.5484    0.6480    0.0000 C   0  0  0  0  0  0  0  0  0  0  0  0
   -1.2629   -0.5895    0.0000 O   0  0  0  0  0  0  0  0  0  0  0  0
  1 15  2  0  0  0  0
  1 13  1  0  0  0  0
  2  3  2  0  0  0  0
  3 16  1  0  0  0  0
  4 18  2  0  0  0  0
  4  2  1  0  0  0  0
  6  5  1  0  0  0  0
  6  7  1  0  0  0  0
  7 12  1  0  0  0  0
  8  7  2  0  0  0  0
  8  9  1  0  0  0  0
  9 10  2  0  0  0  0
 10 11  1  0  0  0  0
 12 11  2  0  0  0  0
 13  2  1  0  0  0  0
 14  1  1  0  0  0  0
 17  5  1  0  0  0  0
 17 16  2  0  0  0  0
 18 17  1  0  0  0  0
 19  6  2  0  0  0  0
M  END
> <DRUGBANK_ID>
DB07122

> <DRUG_GROUPS>
experimental

> <GENERIC_NAME>
1-[4-(2-oxo-2-phenylethyl)phenyl]guanidine

> <CHEMICAL_FORMULA>
C15H15N3O

> <MOLECULAR_WEIGHT>
253.2991

> <EXACT_MASS>
253.121512117

> <IUPAC_NAME>
1-[4-(2-oxo-2-phenylethyl)phenyl]guanidine

> <IUPAC_TRADITIONAL_NAME>
1-[4-(2-oxo-2-phenylethyl)phenyl]guanidine

> <INCHI_IDENTIFIER>
InChI=1S/C15H15N3O/c16-15(17)18-13-8-6-11(7-9-13)10-14(19)12-4-2-1-3-5-12/h1-9H,10H2,(H4,16,17,18)

> <INCHI_KEY>
InChIKey=MERNPSIIBFTCAI-UHFFFAOYSA-N

> <SMILES>
NC(=N)NC1=CC=C(CC(=O)C2=CC=CC=C2)C=C1

> <JCHEM_ACCEPTOR_COUNT>
4

> <JCHEM_DONOR_COUNT>
3

> <JCHEM_ACIDIC_PKA>
16.49

> <JCHEM_BASIC_PKA>
10.27

> <JCHEM_PHYSIOLOGICAL_CHARGE>
1

> <ALOGPS_LOGP>
2.01

> <JCHEM_LOGP>
2.34

> <ALOGPS_LOGS>
-3.4

> <JCHEM_POLARIZABILITY>
27.01

> <JCHEM_POLAR_SURFACE_AREA>
78.97

> <JCHEM_REFRACTIVITY>
87.32

> <JCHEM_ROTATABLE_BOND_COUNT>
4

> <ALOGPS_SOLUBILITY>
9.50e-02 g/l __ 

$$$$
