ELI
  Mrv0541 02241213362D          

 21 22  0  0  0  0            999 V2000
   -2.1169   -2.1212    0.0000 C   0  0  0  0  0  0  0  0  0  0  0  0
   -1.4024   -1.7087    0.0000 C   0  0  0  0  0  0  0  0  0  0  0  0
   -1.4024   -0.8837    0.0000 C   0  0  0  0  0  0  0  0  0  0  0  0
   -2.1169   -0.4712    0.0000 C   0  0  0  0  0  0  0  0  0  0  0  0
   -2.8314   -0.8837    0.0000 C   0  0  0  0  0  0  0  0  0  0  0  0
   -2.8314   -1.7087    0.0000 C   0  0  0  0  0  0  0  0  0  0  0  0
    0.0265   -0.8837    0.0000 O   0  0  0  0  0  0  0  0  0  0  0  0
   -0.6880   -0.4712    0.0000 C   0  0  0  0  0  0  0  0  0  0  0  0
   -2.1169    0.3538    0.0000 C   0  0  0  0  0  0  0  0  0  0  0  0
   -1.4024    0.7663    0.0000 C   0  0  0  0  0  0  0  0  0  0  0  0
   -0.6880    0.3538    0.0000 C   0  0  0  0  0  0  0  0  0  0  0  0
   -2.8314    0.7663    0.0000 O   0  0  0  0  0  0  0  0  0  0  0  0
   -1.4024    1.5913    0.0000 C   0  0  0  0  0  0  0  0  0  0  0  0
    0.0265    0.7663    0.0000 C   0  0  0  0  0  0  0  0  0  0  0  0
    0.7410    0.3538    0.0000 C   0  0  0  0  0  0  0  0  0  0  0  0
    1.4554    0.7663    0.0000 C   0  0  0  0  0  0  0  0  0  0  0  0
    2.1699    0.3538    0.0000 C   0  0  0  0  0  0  0  0  0  0  0  0
    2.8844    0.7663    0.0000 C   0  0  0  0  0  0  0  0  0  0  0  0
    3.5989    0.3538    0.0000 C   0  0  0  0  0  0  0  0  0  0  0  0
    4.3133    0.7663    0.0000 O   0  0  0  0  0  0  0  0  0  0  0  0
    3.5989   -0.4712    0.0000 O   0  0  0  0  0  0  0  0  0  0  0  0
  1  2  1  0  0  0  0
  1  6  2  0  0  0  0
  2  3  2  0  0  0  0
  3  4  1  0  0  0  0
  3  8  1  0  0  0  0
  4  5  2  0  0  0  0
  4  9  1  0  0  0  0
  5  6  1  0  0  0  0
  7  8  2  0  0  0  0
  8 11  1  0  0  0  0
  9 10  1  0  0  0  0
  9 12  2  0  0  0  0
 10 11  2  0  0  0  0
 10 13  1  0  0  0  0
 11 14  1  0  0  0  0
 14 15  1  0  0  0  0
 15 16  1  0  0  0  0
 16 17  1  0  0  0  0
 17 18  1  0  0  0  0
 18 19  1  0  0  0  0
 19 20  2  0  0  0  0
 19 21  1  0  0  0  0
M  END
> <DRUGBANK_ID>
DB07714

> <DRUG_GROUPS>
experimental

> <GENERIC_NAME>
6-(3-METHYL-1,4-DIOXO-1,4-DIHYDRONAPHTHALEN-2-YL)HEXANOIC ACID

> <CHEMICAL_FORMULA>
C17H18O4

> <MOLECULAR_WEIGHT>
286.3224

> <EXACT_MASS>
286.120509064

> <IUPAC_NAME>
6-(3-methyl-1,4-dioxo-1,4-dihydronaphthalen-2-yl)hexanoic acid

> <IUPAC_TRADITIONAL_NAME>
6-(3-methyl-1,4-dioxonaphthalen-2-yl)hexanoic acid

> <INCHI_IDENTIFIER>
InChI=1S/C17H18O4/c1-11-12(7-3-2-4-10-15(18)19)17(21)14-9-6-5-8-13(14)16(11)20/h5-6,8-9H,2-4,7,10H2,1H3,(H,18,19)

> <INCHI_KEY>
InChIKey=ICGRXHWXPCXIKM-UHFFFAOYSA-N

> <SMILES>
CC1=C(CCCCCC(O)=O)C(=O)C2=CC=CC=C2C1=O

> <JCHEM_ACCEPTOR_COUNT>
4

> <JCHEM_DONOR_COUNT>
1

> <JCHEM_ACIDIC_PKA>
3.99

> <JCHEM_BASIC_PKA>
-7.2

> <JCHEM_PHYSIOLOGICAL_CHARGE>
-1

> <ALOGPS_LOGP>
2.59

> <JCHEM_LOGP>
3.19

> <ALOGPS_LOGS>
-4.1

> <JCHEM_POLARIZABILITY>
31.07

> <JCHEM_POLAR_SURFACE_AREA>
71.44

> <JCHEM_REFRACTIVITY>
79.57

> <JCHEM_ROTATABLE_BOND_COUNT>
6

> <ALOGPS_SOLUBILITY>
2.37e-02 g/l __ 

$$$$
