D27
  Mrv0541 02241213322D          

 24 25  0  0  0  0            999 V2000
   71.7677    7.6818    0.0000 C   0  0  0  0  0  0  0  0  0  0  0  0
   71.0533    7.2693    0.0000 C   0  0  0  0  0  0  0  0  0  0  0  0
   71.7677    8.5068    0.0000 C   0  0  0  0  0  0  0  0  0  0  0  0
   70.3388    7.6818    0.0000 N   0  0  0  0  0  0  0  0  0  0  0  0
   69.6243    7.2693    0.0000 C   0  0  0  0  0  0  0  0  0  0  0  0
   68.9099    7.6818    0.0000 C   0  0  0  0  0  0  0  0  0  0  0  0
   66.0520    7.6818    0.0000 C   0  0  0  0  0  0  0  0  0  0  0  0
   68.1954    7.2693    0.0000 C   0  0  0  0  0  0  0  0  0  0  0  0
   66.0520    8.5068    0.0000 C   0  0  0  0  0  0  0  0  0  0  0  0
   66.7664    7.2693    0.0000 C   0  0  0  0  0  0  0  0  0  0  0  0
   71.0533    8.9193    0.0000 O   0  0  0  0  0  0  0  0  0  0  0  0
   69.6243    6.4443    0.0000 O   0  0  0  0  0  0  0  0  0  0  0  0
   67.4809    7.6818    0.0000 C   0  0  0  0  0  0  0  0  0  0  0  0
   66.7664    8.9193    0.0000 C   0  0  0  0  0  0  0  0  0  0  0  0
   72.4822    8.9193    0.0000 O   0  0  0  0  0  0  0  0  0  0  0  0
   67.4809    8.5068    0.0000 C   0  0  0  0  0  0  0  0  0  0  0  0
   65.3375    7.2693    0.0000 O   0  0  0  0  0  0  0  0  0  0  0  0
   72.4822    7.2693    0.0000 C   0  0  0  0  0  0  0  0  0  0  0  0
   65.3375    8.9193    0.0000 O   0  0  0  0  0  0  0  0  0  0  0  0
   71.0533    6.4443    0.0000 C   0  0  0  0  0  0  0  0  0  0  0  0
   65.3375    6.4443    0.0000 C   0  0  0  0  0  0  0  0  0  0  0  0
   64.6230    8.5068    0.0000 C   0  0  0  0  0  0  0  0  0  0  0  0
   72.4822    6.4443    0.0000 C   0  0  0  0  0  0  0  0  0  0  0  0
   71.7677    6.0318    0.0000 C   0  0  0  0  0  0  0  0  0  0  0  0
  1  2  1  0  0  0  0
  1  3  1  0  0  0  0
  1 18  2  0  0  0  0
  2  4  1  0  0  0  0
  2 20  2  0  0  0  0
  3 11  2  0  0  0  0
  3 15  1  0  0  0  0
  4  5  1  0  0  0  0
  5  6  1  0  0  0  0
  5 12  2  0  0  0  0
  6  8  2  0  0  0  0
  7  9  1  0  0  0  0
  7 10  2  0  0  0  0
  7 17  1  0  0  0  0
  8 13  1  0  0  0  0
  9 14  2  0  0  0  0
  9 19  1  0  0  0  0
 10 13  1  0  0  0  0
 13 16  2  0  0  0  0
 14 16  1  0  0  0  0
 17 21  1  0  0  0  0
 18 23  1  0  0  0  0
 19 22  1  0  0  0  0
 20 24  1  0  0  0  0
 23 24  2  0  0  0  0
M  END
> <DRUGBANK_ID>
DB07615

> <DRUG_GROUPS>
experimental

> <GENERIC_NAME>
2-{[(2E)-3-(3,4-dimethoxyphenyl)prop-2-enoyl]amino}benzoic acid

> <CHEMICAL_FORMULA>
C18H17NO5

> <MOLECULAR_WEIGHT>
327.3313

> <EXACT_MASS>
327.110672659

> <IUPAC_NAME>
2-[(2E)-3-(3,4-dimethoxyphenyl)prop-2-enamido]benzoic acid

> <IUPAC_TRADITIONAL_NAME>
tranilast

> <INCHI_IDENTIFIER>
InChI=1S/C18H17NO5/c1-23-15-9-7-12(11-16(15)24-2)8-10-17(20)19-14-6-4-3-5-13(14)18(21)22/h3-11H,1-2H3,(H,19,20)(H,21,22)/b10-8+

> <INCHI_KEY>
InChIKey=NZHGWWWHIYHZNX-CSKARUKUSA-N

> <SMILES>
COC1=CC=C(\C=C\C(=O)NC2=CC=CC=C2C(O)=O)C=C1OC

> <JCHEM_ACCEPTOR_COUNT>
5

> <JCHEM_DONOR_COUNT>
2

> <JCHEM_ACIDIC_PKA>
3.55

> <JCHEM_BASIC_PKA>
-2

> <JCHEM_PHYSIOLOGICAL_CHARGE>
-1

> <ALOGPS_LOGP>
2.89

> <JCHEM_LOGP>
3.56

> <ALOGPS_LOGS>
-4.6

> <JCHEM_POLARIZABILITY>
34.2

> <JCHEM_POLAR_SURFACE_AREA>
84.86

> <JCHEM_REFRACTIVITY>
91.52

> <JCHEM_ROTATABLE_BOND_COUNT>
6

> <ALOGPS_SOLUBILITY>
8.40e-03 g/l __ 

$$$$
