CMW
  Mrv0541 02241213302D          

 24 25  0  0  0  0            999 V2000
  -12.4524   -1.9679    0.0000 O   0  0  0  0  0  0  0  0  0  0  0  0
  -12.4524   -1.1429    0.0000 C   0  0  0  0  0  0  0  0  0  0  0  0
  -13.1669   -0.7304    0.0000 N   0  0  0  0  0  0  0  0  0  0  0  0
  -13.8813   -1.1429    0.0000 C   0  0  0  0  0  0  0  0  0  0  0  0
  -13.8813   -1.9679    0.0000 C   0  0  0  0  0  0  0  0  0  0  0  0
  -14.5958   -2.3804    0.0000 C   0  0  0  0  0  0  0  0  0  0  0  0
  -15.3103   -1.9679    0.0000 N   0  0  0  0  0  0  0  0  0  0  0  0
  -15.3103   -1.1429    0.0000 C   0  0  0  0  0  0  0  0  0  0  0  0
  -14.5958   -0.7304    0.0000 C   0  0  0  0  0  0  0  0  0  0  0  0
  -11.7379   -0.7304    0.0000 O   0  0  0  0  0  0  0  0  0  0  0  0
  -11.0235   -1.1429    0.0000 C   0  0  0  0  0  0  0  0  0  0  0  0
  -10.3090   -0.7304    0.0000 C   0  0  0  0  0  0  0  0  0  0  0  0
   -9.5945   -1.1429    0.0000 C   0  0  0  0  0  0  0  0  0  0  0  0
   -8.8800   -0.7304    0.0000 N   0  0  0  0  0  0  0  0  0  0  0  0
   -8.1656   -1.1429    0.0000 S   0  0  0  0  0  0  0  0  0  0  0  0
   -8.5781   -1.8574    0.0000 O   0  0  0  0  0  0  0  0  0  0  0  0
   -7.7531   -0.4284    0.0000 O   0  0  0  0  0  0  0  0  0  0  0  0
   -7.4511   -1.5554    0.0000 C   0  0  0  0  0  0  0  0  0  0  0  0
   -6.7366   -1.1429    0.0000 C   0  0  0  0  0  0  0  0  0  0  0  0
   -6.0222   -1.5554    0.0000 C   0  0  0  0  0  0  0  0  0  0  0  0
   -6.0222   -2.3804    0.0000 C   0  0  0  0  0  0  0  0  0  0  0  0
   -5.3077   -2.7929    0.0000 C   0  0  0  0  0  0  0  0  0  0  0  0
   -6.7366   -2.7929    0.0000 C   0  0  0  0  0  0  0  0  0  0  0  0
   -7.4511   -2.3804    0.0000 C   0  0  0  0  0  0  0  0  0  0  0  0
  1  2  2  0  0  0  0
  2  3  1  0  0  0  0
  2 10  1  0  0  0  0
  3  4  1  0  0  0  0
  4  5  1  0  0  0  0
  4  9  2  0  0  0  0
  5  6  2  0  0  0  0
  6  7  1  0  0  0  0
  7  8  2  0  0  0  0
  8  9  1  0  0  0  0
 10 11  1  0  0  0  0
 11 12  1  0  0  0  0
 12 13  1  0  0  0  0
 13 14  1  0  0  0  0
 14 15  1  0  0  0  0
 15 16  2  0  0  0  0
 15 17  2  0  0  0  0
 15 18  1  0  0  0  0
 18 19  1  0  0  0  0
 18 24  2  0  0  0  0
 19 20  2  0  0  0  0
 20 21  1  0  0  0  0
 21 22  1  0  0  0  0
 21 23  2  0  0  0  0
 23 24  1  0  0  0  0
M  END
> <DRUGBANK_ID>
DB07572

> <DRUG_GROUPS>
experimental

> <GENERIC_NAME>
3-{[(4-methylphenyl)sulfonyl]amino}propyl pyridin-4-ylcarbamate

> <CHEMICAL_FORMULA>
C16H19N3O4S

> <MOLECULAR_WEIGHT>
349.405

> <EXACT_MASS>
349.109626801

> <IUPAC_NAME>
3-[(4-methylbenzene)sulfonamido]propyl N-(pyridin-4-yl)carbamate

> <IUPAC_TRADITIONAL_NAME>
3-(4-methylbenzenesulfonamido)propyl N-(pyridin-4-yl)carbamate

> <INCHI_IDENTIFIER>
InChI=1S/C16H19N3O4S/c1-13-3-5-15(6-4-13)24(21,22)18-9-2-12-23-16(20)19-14-7-10-17-11-8-14/h3-8,10-11,18H,2,9,12H2,1H3,(H,17,19,20)

> <INCHI_KEY>
InChIKey=ITYCDQJBLCTIID-UHFFFAOYSA-N

> <SMILES>
CC1=CC=C(C=C1)S(=O)(=O)NCCCOC(=O)NC1=CC=NC=C1

> <JCHEM_ACCEPTOR_COUNT>
5

> <JCHEM_DONOR_COUNT>
2

> <JCHEM_ACIDIC_PKA>
10.4

> <JCHEM_BASIC_PKA>
4.88

> <JCHEM_PHYSIOLOGICAL_CHARGE>
0

> <ALOGPS_LOGP>
0.94

> <JCHEM_LOGP>
1.82

> <ALOGPS_LOGS>
-4.1

> <JCHEM_POLARIZABILITY>
35.31

> <JCHEM_POLAR_SURFACE_AREA>
97.39

> <JCHEM_REFRACTIVITY>
91.44

> <JCHEM_ROTATABLE_BOND_COUNT>
7

> <ALOGPS_SOLUBILITY>
3.08e-02 g/l __ 

$$$$
