BP7
  Mrv0541 02241213272D          

 14 15  0  0  0  0            999 V2000
   -0.2358   -0.1300    0.0000 C   0  0  0  0  0  0  0  0  0  0  0  0
    0.4786   -0.5425    0.0000 C   0  0  0  0  0  0  0  0  0  0  0  0
    0.4786   -1.3675    0.0000 C   0  0  0  0  0  0  0  0  0  0  0  0
    1.1931   -1.7800    0.0000 O   0  0  0  0  0  0  0  0  0  0  0  0
   -0.2358   -1.7800    0.0000 C   0  0  0  0  0  0  0  0  0  0  0  0
   -0.2358   -2.6050    0.0000 O   0  0  0  0  0  0  0  0  0  0  0  0
   -0.9503   -1.3675    0.0000 C   0  0  0  0  0  0  0  0  0  0  0  0
   -0.9503   -0.5425    0.0000 C   0  0  0  0  0  0  0  0  0  0  0  0
   -0.2358    0.6950    0.0000 C   0  0  0  0  0  0  0  0  0  0  0  0
   -0.9503    1.1075    0.0000 C   0  0  0  0  0  0  0  0  0  0  0  0
   -0.9503    1.9325    0.0000 C   0  0  0  0  0  0  0  0  0  0  0  0
   -0.2358    2.3450    0.0000 C   0  0  0  0  0  0  0  0  0  0  0  0
    0.4786    1.9325    0.0000 C   0  0  0  0  0  0  0  0  0  0  0  0
    0.4786    1.1075    0.0000 C   0  0  0  0  0  0  0  0  0  0  0  0
  1  2  2  0  0  0  0
  1  8  1  0  0  0  0
  1  9  1  0  0  0  0
  2  3  1  0  0  0  0
  3  4  1  0  0  0  0
  3  5  2  0  0  0  0
  5  6  1  0  0  0  0
  5  7  1  0  0  0  0
  7  8  2  0  0  0  0
  9 10  1  0  0  0  0
  9 14  2  0  0  0  0
 10 11  2  0  0  0  0
 11 12  1  0  0  0  0
 12 13  2  0  0  0  0
 13 14  1  0  0  0  0
M  END
> <DRUGBANK_ID>
DB07478

> <DRUG_GROUPS>
experimental

> <GENERIC_NAME>
1,1'-BIPHENYL-3,4-DIOL

> <CHEMICAL_FORMULA>
C12H10O2

> <MOLECULAR_WEIGHT>
186.2066

> <EXACT_MASS>
186.068079564

> <IUPAC_NAME>
4-phenylbenzene-1,2-diol

> <IUPAC_TRADITIONAL_NAME>
4-phenylcatechol

> <INCHI_IDENTIFIER>
InChI=1S/C12H10O2/c13-11-7-6-10(8-12(11)14)9-4-2-1-3-5-9/h1-8,13-14H

> <INCHI_KEY>
InChIKey=QDNPCYCBQFHNJC-UHFFFAOYSA-N

> <SMILES>
OC1=C(O)C=C(C=C1)C1=CC=CC=C1

> <JCHEM_ACCEPTOR_COUNT>
2

> <JCHEM_DONOR_COUNT>
2

> <JCHEM_ACIDIC_PKA>
9.19

> <JCHEM_BASIC_PKA>
-6.3

> <JCHEM_PHYSIOLOGICAL_CHARGE>
0

> <ALOGPS_LOGP>
2.51

> <JCHEM_LOGP>
3.01

> <ALOGPS_LOGS>
-2.6

> <JCHEM_POLARIZABILITY>
19.89

> <JCHEM_POLAR_SURFACE_AREA>
40.46

> <JCHEM_REFRACTIVITY>
55.16

> <JCHEM_ROTATABLE_BOND_COUNT>
1

> <ALOGPS_SOLUBILITY>
4.26e-01 g/l __ 

$$$$
