IBM
  Mrv0541 02241213452D          

 16 17  0  0  0  0            999 V2000
   -1.7156   -0.1296    0.0000 N   0  0  0  0  0  0  0  0  0  0  0  0
   -2.2005   -0.7970    0.0000 C   0  0  0  0  0  0  0  0  0  0  0  0
   -1.7156   -1.4644    0.0000 N   0  0  0  0  0  0  0  0  0  0  0  0
   -0.9310   -1.2095    0.0000 C   0  0  0  0  0  0  0  0  0  0  0  0
   -0.9310   -0.3845    0.0000 C   0  0  0  0  0  0  0  0  0  0  0  0
   -0.2165    0.0280    0.0000 N   0  0  0  0  0  0  0  0  0  0  0  0
    0.4980   -0.3845    0.0000 C   0  0  0  0  0  0  0  0  0  0  0  0
    0.4980   -1.2095    0.0000 N   0  0  0  0  0  0  0  0  0  0  0  0
   -0.2165   -1.6220    0.0000 C   0  0  0  0  0  0  0  0  0  0  0  0
   -0.2165   -2.4470    0.0000 O   0  0  0  0  0  0  0  0  0  0  0  0
    1.2125    0.0280    0.0000 O   0  0  0  0  0  0  0  0  0  0  0  0
    1.2125   -1.6220    0.0000 C   0  0  0  0  0  0  0  0  0  0  0  0
   -0.2165    0.8530    0.0000 C   0  0  0  0  0  0  0  0  0  0  0  0
    0.4980    1.2655    0.0000 C   0  0  0  0  0  0  0  0  0  0  0  0
    0.4980    2.0905    0.0000 C   0  0  0  0  0  0  0  0  0  0  0  0
    1.2125    0.8530    0.0000 C   0  0  0  0  0  0  0  0  0  0  0  0
  1  2  1  0  0  0  0
  1  5  1  0  0  0  0
  2  3  2  0  0  0  0
  3  4  1  0  0  0  0
  4  5  2  0  0  0  0
  4  9  1  0  0  0  0
  5  6  1  0  0  0  0
  6  7  1  0  0  0  0
  6 13  1  0  0  0  0
  7  8  1  0  0  0  0
  7 11  2  0  0  0  0
  8  9  1  0  0  0  0
  8 12  1  0  0  0  0
  9 10  2  0  0  0  0
 13 14  1  0  0  0  0
 14 15  1  0  0  0  0
 14 16  1  0  0  0  0
M  END
> <DRUGBANK_ID>
DB07954

> <DRUG_GROUPS>
experimental

> <GENERIC_NAME>
3-ISOBUTYL-1-METHYLXANTHINE

> <CHEMICAL_FORMULA>
C10H14N4O2

> <MOLECULAR_WEIGHT>
222.2438

> <EXACT_MASS>
222.111675712

> <IUPAC_NAME>
1-methyl-3-(2-methylpropyl)-2,3,6,9-tetrahydro-1H-purine-2,6-dione

> <IUPAC_TRADITIONAL_NAME>
1-methyl-3-(2-methylpropyl)-9H-purine-2,6-dione

> <INCHI_IDENTIFIER>
InChI=1S/C10H14N4O2/c1-6(2)4-14-8-7(11-5-12-8)9(15)13(3)10(14)16/h5-6H,4H2,1-3H3,(H,11,12)

> <INCHI_KEY>
InChIKey=APIXJSLKIYYUKG-UHFFFAOYSA-N

> <SMILES>
CC(C)CN1C2=C(N=CN2)C(=O)N(C)C1=O

> <JCHEM_ACCEPTOR_COUNT>
3

> <JCHEM_DONOR_COUNT>
1

> <JCHEM_ACIDIC_PKA>
11.41

> <JCHEM_BASIC_PKA>
2.42

> <JCHEM_PHYSIOLOGICAL_CHARGE>
0

> <ALOGPS_LOGP>
0.84

> <JCHEM_LOGP>
0.44

> <ALOGPS_LOGS>
-1.6

> <JCHEM_POLARIZABILITY>
22.52

> <JCHEM_POLAR_SURFACE_AREA>
69.3

> <JCHEM_REFRACTIVITY>
57.37

> <JCHEM_ROTATABLE_BOND_COUNT>
2

> <ALOGPS_SOLUBILITY>
5.44e+00 g/l __ 

$$$$
