3IG
  Mrv0541 02241213102D          

 29 31  0  0  0  0            999 V2000
   -1.8784    2.0698    0.0000 C   0  0  0  0  0  0  0  0  0  0  0  0
   -1.8784    2.8948    0.0000 N   0  0  0  0  0  0  0  0  0  0  0  0
   -1.1639    3.3073    0.0000 C   0  0  0  0  0  0  0  0  0  0  0  0
   -0.4494    2.8948    0.0000 N   0  0  0  0  0  0  0  0  0  0  0  0
   -0.4494    2.0698    0.0000 C   0  0  0  0  0  0  0  0  0  0  0  0
   -1.1639    1.6573    0.0000 C   0  0  0  0  0  0  0  0  0  0  0  0
   -2.5928    1.6573    0.0000 N   0  0  0  0  0  0  0  0  0  0  0  0
   -1.1639    4.1323    0.0000 N   0  0  0  0  0  0  0  0  0  0  0  0
    0.2650    1.6573    0.0000 C   0  0  0  0  0  0  0  0  0  0  0  0
    0.2650    0.8323    0.0000 C   0  0  0  0  0  0  0  0  0  0  0  0
   -1.8784    0.4198    0.0000 C   0  0  0  0  0  0  0  0  0  0  0  0
   -1.8784   -0.4052    0.0000 C   0  0  0  0  0  0  0  0  0  0  0  0
   -1.1639   -0.8177    0.0000 C   0  0  0  0  0  0  0  0  0  0  0  0
   -0.4494   -0.4052    0.0000 C   0  0  0  0  0  0  0  0  0  0  0  0
   -0.4494    0.4198    0.0000 C   0  0  0  0  0  0  0  0  0  0  0  0
   -1.1639    0.8323    0.0000 C   0  0  0  0  0  0  0  0  0  0  0  0
   -1.1639   -1.6427    0.0000 O   0  0  0  0  0  0  0  0  0  0  0  0
   -0.4494   -2.0552    0.0000 C   0  0  0  0  0  0  0  0  0  0  0  0
    0.2650   -1.6427    0.0000 C   0  0  0  0  0  0  0  0  0  0  0  0
    0.2650   -0.8177    0.0000 N   0  0  0  0  0  0  0  0  0  0  0  0
    0.9795   -0.4052    0.0000 C   0  0  0  0  0  0  0  0  0  0  0  0
    1.6940   -0.8177    0.0000 C   0  0  0  0  0  0  0  0  0  0  0  0
    2.4085   -0.4052    0.0000 N   0  0  0  0  0  0  0  0  0  0  0  0
    3.1229   -0.8177    0.0000 C   0  0  0  0  0  0  0  0  0  0  0  0
    3.8374   -0.4052    0.0000 C   0  0  0  0  0  0  0  0  0  0  0  0
   -0.8367   -2.7836    0.0000 C   0  0  0  0  0  0  0  0  0  0  0  0
   -0.0621   -2.7836    0.0000 C   0  0  0  0  0  0  0  0  0  0  0  0
    0.9795   -2.0552    0.0000 O   0  0  0  0  0  0  0  0  0  0  0  0
    3.1229   -1.6427    0.0000 O   0  0  0  0  0  0  0  0  0  0  0  0
  1  2  1  0  0  0  0
  1  6  2  0  0  0  0
  1  7  1  0  0  0  0
  2  3  2  0  0  0  0
  3  4  1  0  0  0  0
  3  8  1  0  0  0  0
  4  5  2  0  0  0  0
  5  6  1  0  0  0  0
  5  9  1  0  0  0  0
  6 16  1  0  0  0  0
  9 10  1  0  0  0  0
 11 12  2  0  0  0  0
 11 16  1  0  0  0  0
 12 13  1  0  0  0  0
 13 14  2  0  0  0  0
 13 17  1  0  0  0  0
 14 15  1  0  0  0  0
 14 20  1  0  0  0  0
 15 16  2  0  0  0  0
 17 18  1  0  0  0  0
 18 19  1  0  0  0  0
 18 26  1  0  0  0  0
 18 27  1  0  0  0  0
 19 20  1  0  0  0  0
 19 28  2  0  0  0  0
 20 21  1  0  0  0  0
 21 22  1  0  0  0  0
 22 23  1  0  0  0  0
 23 24  1  0  0  0  0
 24 25  1  0  0  0  0
 24 29  2  0  0  0  0
M  END
> <DRUGBANK_ID>
DB07059

> <DRUG_GROUPS>
experimental

> <GENERIC_NAME>
N-{2-[6-(2,4-DIAMINO-6-ETHYLPYRIMIDIN-5-YL)-2,2-DIMETHYL-3-OXO-2,3-DIHYDRO-4H-1,4-BENZOXAZIN-4-YL]ETHYL}ACETAMIDE

> <CHEMICAL_FORMULA>
C20H26N6O3

> <MOLECULAR_WEIGHT>
398.4588

> <EXACT_MASS>
398.206638728

> <IUPAC_NAME>
N-{2-[6-(2,4-diamino-6-ethylpyrimidin-5-yl)-2,2-dimethyl-3-oxo-3,4-dihydro-2H-1,4-benzoxazin-4-yl]ethyl}acetamide

> <IUPAC_TRADITIONAL_NAME>
N-{2-[6-(2,4-diamino-6-ethylpyrimidin-5-yl)-2,2-dimethyl-3-oxo-1,4-benzoxazin-4-yl]ethyl}acetamide

> <INCHI_IDENTIFIER>
InChI=1S/C20H26N6O3/c1-5-13-16(17(21)25-19(22)24-13)12-6-7-15-14(10-12)26(9-8-23-11(2)27)18(28)20(3,4)29-15/h6-7,10H,5,8-9H2,1-4H3,(H,23,27)(H4,21,22,24,25)

> <INCHI_KEY>
InChIKey=GBXSOZDYCSBLQX-UHFFFAOYSA-N

> <SMILES>
CCC1=NC(N)=NC(N)=C1C1=CC2=C(OC(C)(C)C(=O)N2CCNC(C)=O)C=C1

> <JCHEM_ACCEPTOR_COUNT>
7

> <JCHEM_DONOR_COUNT>
3

> <JCHEM_ACIDIC_PKA>
15.18

> <JCHEM_BASIC_PKA>
7.77

> <JCHEM_PHYSIOLOGICAL_CHARGE>
1

> <ALOGPS_LOGP>
1.35

> <JCHEM_LOGP>
0.81

> <ALOGPS_LOGS>
-3.2

> <JCHEM_POLARIZABILITY>
43.1

> <JCHEM_POLAR_SURFACE_AREA>
136.46

> <JCHEM_REFRACTIVITY>
111.22

> <JCHEM_ROTATABLE_BOND_COUNT>
5

> <ALOGPS_SOLUBILITY>
2.32e-01 g/l __ 

$$$$
