IAG
  Mrv0541 02241213452D          

 17 18  0  0  0  0            999 V2000
   -3.7692    0.1976    0.0000 O   0  0  0  0  0  0  0  0  0  0  0  0
   -3.0548   -0.2149    0.0000 C   0  0  0  0  0  0  0  0  0  0  0  0
   -3.0548   -1.0399    0.0000 O   0  0  0  0  0  0  0  0  0  0  0  0
   -2.3403    0.1976    0.0000 C   0  0  0  0  0  0  0  0  0  0  0  0
   -1.6258   -0.2149    0.0000 N   0  0  0  0  0  0  0  0  0  0  0  0
   -0.9114    0.1976    0.0000 C   0  0  0  0  0  0  0  0  0  0  0  0
   -0.9114    1.0226    0.0000 O   0  0  0  0  0  0  0  0  0  0  0  0
   -0.1969   -0.2149    0.0000 C   0  0  0  0  0  0  0  0  0  0  0  0
    0.5176    0.1976    0.0000 C   0  0  0  0  0  0  0  0  0  0  0  0
    0.6038    1.0181    0.0000 C   0  0  0  0  0  0  0  0  0  0  0  0
    1.4108    1.1896    0.0000 N   0  0  0  0  0  0  0  0  0  0  0  0
    1.2713   -0.1379    0.0000 C   0  0  0  0  0  0  0  0  0  0  0  0
    1.8233    0.4752    0.0000 C   0  0  0  0  0  0  0  0  0  0  0  0
    2.6303    0.3037    0.0000 C   0  0  0  0  0  0  0  0  0  0  0  0
    2.8852   -0.4810    0.0000 C   0  0  0  0  0  0  0  0  0  0  0  0
    2.3332   -1.0941    0.0000 C   0  0  0  0  0  0  0  0  0  0  0  0
    1.5262   -0.9225    0.0000 C   0  0  0  0  0  0  0  0  0  0  0  0
  1  2  1  0  0  0  0
  2  3  2  0  0  0  0
  2  4  1  0  0  0  0
  4  5  1  0  0  0  0
  5  6  1  0  0  0  0
  6  7  2  0  0  0  0
  6  8  1  0  0  0  0
  8  9  1  0  0  0  0
  9 10  2  0  0  0  0
  9 12  1  0  0  0  0
 10 11  1  0  0  0  0
 11 13  1  0  0  0  0
 12 13  2  0  0  0  0
 12 17  1  0  0  0  0
 13 14  1  0  0  0  0
 14 15  2  0  0  0  0
 15 16  1  0  0  0  0
 16 17  2  0  0  0  0
M  END
> <DRUGBANK_ID>
DB07952

> <DRUG_GROUPS>
experimental

> <GENERIC_NAME>
N-[1H-INDOL-3-YL-ACETYL]GLYCINE ACID

> <CHEMICAL_FORMULA>
C12H12N2O3

> <MOLECULAR_WEIGHT>
232.2353

> <EXACT_MASS>
232.08479226

> <IUPAC_NAME>
2-[2-(1H-indol-3-yl)acetamido]acetic acid

> <IUPAC_TRADITIONAL_NAME>
[2-(1H-indol-3-yl)acetamido]acetic acid

> <INCHI_IDENTIFIER>
InChI=1S/C12H12N2O3/c15-11(14-7-12(16)17)5-8-6-13-10-4-2-1-3-9(8)10/h1-4,6,13H,5,7H2,(H,14,15)(H,16,17)

> <INCHI_KEY>
InChIKey=YDXXLJMIHMIOIF-UHFFFAOYSA-N

> <SMILES>
OC(=O)CNC(=O)CC1=CNC2=C1C=CC=C2

> <JCHEM_ACCEPTOR_COUNT>
3

> <JCHEM_DONOR_COUNT>
3

> <JCHEM_ACIDIC_PKA>
4.04

> <JCHEM_BASIC_PKA>
-2.8

> <JCHEM_PHYSIOLOGICAL_CHARGE>
-1

> <ALOGPS_LOGP>
1.15

> <JCHEM_LOGP>
0.6

> <ALOGPS_LOGS>
-2.8

> <JCHEM_POLARIZABILITY>
23.06

> <JCHEM_POLAR_SURFACE_AREA>
82.19

> <JCHEM_REFRACTIVITY>
61.26

> <JCHEM_ROTATABLE_BOND_COUNT>
4

> <ALOGPS_SOLUBILITY>
3.64e-01 g/l __ 

$$$$
