HPH
  Mrv0541 02241213442D          

 13 13  0  0  0  0            999 V2000
    1.1341    1.0609    0.0000 C   0  0  0  0  0  0  0  0  0  0  0  0
    1.1341    1.8859    0.0000 O   0  0  0  0  0  0  0  0  0  0  0  0
    1.8485    0.6484    0.0000 O   0  0  0  0  0  0  0  0  0  0  0  0
    0.4196    0.6484    0.0000 C   0  0  1  0  0  0  0  0  0  0  0  0
   -0.2949    1.0609    0.0000 N   0  0  0  0  0  0  0  0  0  0  0  0
    0.4196   -0.1766    0.0000 C   0  0  0  0  0  0  0  0  0  0  0  0
   -0.2949   -0.5891    0.0000 C   0  0  0  0  0  0  0  0  0  0  0  0
   -0.2949   -1.4141    0.0000 C   0  0  0  0  0  0  0  0  0  0  0  0
   -1.0093   -0.1766    0.0000 C   0  0  0  0  0  0  0  0  0  0  0  0
   -1.0093   -1.8266    0.0000 C   0  0  0  0  0  0  0  0  0  0  0  0
   -1.7238   -0.5891    0.0000 C   0  0  0  0  0  0  0  0  0  0  0  0
   -1.7238   -1.4141    0.0000 C   0  0  0  0  0  0  0  0  0  0  0  0
    0.4196    1.2323    0.0000 H   0  0  0  0  0  0  0  0  0  0  0  0
  1  2  1  0  0  0  0
  1  3  1  0  0  0  0
  1  4  1  0  0  0  0
  4  5  1  6  0  0  0
  4  6  1  0  0  0  0
  4 13  1  1  0  0  0
  6  7  1  0  0  0  0
  7  8  2  0  0  0  0
  7  9  1  0  0  0  0
  8 10  1  0  0  0  0
  9 11  2  0  0  0  0
 10 12  2  0  0  0  0
 11 12  1  0  0  0  0
M  END
> <DRUGBANK_ID>
DB07910

> <DRUG_GROUPS>
experimental

> <GENERIC_NAME>
PHENYLALANINDIOL

> <CHEMICAL_FORMULA>
C9H13NO2

> <MOLECULAR_WEIGHT>
167.205

> <EXACT_MASS>
167.094628665

> <IUPAC_NAME>
(2S)-2-amino-3-phenylpropane-1,1-diol

> <IUPAC_TRADITIONAL_NAME>
(2S)-2-amino-3-phenylpropane-1,1-diol

> <INCHI_IDENTIFIER>
InChI=1S/C9H13NO2/c10-8(9(11)12)6-7-4-2-1-3-5-7/h1-5,8-9,11-12H,6,10H2/t8-/m0/s1

> <INCHI_KEY>
InChIKey=IFTWVTAUEXLCHB-QMMMGPOBSA-N

> <SMILES>
[H][C@](N)(CC1=CC=CC=C1)C(O)O

> <JCHEM_ACCEPTOR_COUNT>
3

> <JCHEM_DONOR_COUNT>
3

> <JCHEM_ACIDIC_PKA>
11.85

> <JCHEM_BASIC_PKA>
8.8

> <JCHEM_PHYSIOLOGICAL_CHARGE>
1

> <ALOGPS_LOGP>
0.01

> <JCHEM_LOGP>
0.39

> <ALOGPS_LOGS>
-1.1

> <JCHEM_POLARIZABILITY>
17.98

> <JCHEM_POLAR_SURFACE_AREA>
66.48

> <JCHEM_REFRACTIVITY>
46.28

> <JCHEM_ROTATABLE_BOND_COUNT>
3

> <ALOGPS_SOLUBILITY>
1.30e+01 g/l __ 

$$$$
