AM8
  Mrv0541 02241213232D          

 31 34  0  0  0  0            999 V2000
   -3.5681   -1.7595    0.0000 C    0  0  0  0  0  0  0  0  0  0  0  0
   -3.0161   -1.1464    0.0000 C    0  0  0  0  0  0  0  0  0  0  0  0
   -2.1956   -1.2327    0.0000 C    0  0  0  0  0  0  0  0  0  0  0  0
   -1.7831   -1.9471    0.0000 C    0  0  0  0  0  0  0  0  0  0  0  0
   -3.1876   -0.3395    0.0000 C    0  0  0  0  0  0  0  0  0  0  0  0
   -3.9413   -0.0039    0.0000 C    0  0  0  0  0  0  0  0  0  0  0  0
   -2.4731    0.0730    0.0000 N    0  0  0  0  0  0  0  0  0  0  0  0
   -1.8600   -0.4790    0.0000 C    0  0  0  0  0  0  0  0  0  0  0  0
   -1.0531   -0.3075    0.0000 C    0  0  0  0  0  0  0  0  0  0  0  0
   -0.7981    0.4772    0.0000 C    0  0  0  0  0  0  0  0  0  0  0  0
   -0.0135    0.7321    0.0000 C    0  0  0  0  0  0  0  0  0  0  0  0
    0.7010    0.3196    0.0000 C    0  0  0  0  0  0  0  0  0  0  0  0
   -1.2830    1.1446    0.0000 C    0  0  0  0  0  0  0  0  0  0  0  0
   -2.1080    1.1446    0.0000 O    0  0  0  0  0  0  0  0  0  0  0  0
   -0.7981    1.8120    0.0000 N    0  0  0  0  0  0  0  0  0  0  0  0
   -0.0135    1.5571    0.0000 C    0  0  0  0  0  0  0  0  0  0  0  0
    0.7010    1.9696    0.0000 C    0  0  0  0  0  0  0  0  0  0  0  0
    1.4154    1.5571    0.0000 C    0  0  0  0  0  0  0  0  0  0  0  0
    1.4154    0.7321    0.0000 C    0  0  0  0  0  0  0  0  0  0  0  0
    2.1299    0.3196    0.0000 S    0  0  0  0  0  0  0  0  0  0  0  0
    1.7174   -0.3949    0.0000 O    0  0  0  0  0  0  0  0  0  0  0  0
    2.5424    1.0341    0.0000 O    0  0  0  0  0  0  0  0  0  0  0  0
    2.8444   -0.0929    0.0000 N    0  0  0  0  0  0  0  0  0  0  0  0
    2.8444   -0.9179    0.0000 C    0  0  0  0  0  0  0  0  0  0  0  0
    3.5589    0.3196    0.0000 C    0  0  0  0  0  0  0  0  0  0  0  0
    4.2733   -0.0929    0.0000 C    0  0  0  0  0  0  0  0  0  0  0  0
    4.9878    0.3196    0.0000 C    0  0  0  0  0  0  0  0  0  0  0  0
    5.7023   -0.0929    0.0000 Cl   0  0  0  0  0  0  0  0  0  0  0  0
    4.9878    1.1446    0.0000 C    0  0  0  0  0  0  0  0  0  0  0  0
    4.2733    1.5571    0.0000 C    0  0  0  0  0  0  0  0  0  0  0  0
    3.5589    1.1446    0.0000 C    0  0  0  0  0  0  0  0  0  0  0  0
  2  1  1  0  0  0  0
  3  2  1  0  0  0  0
  4  3  1  0  0  0  0
  5  2  2  0  0  0  0
  5  6  1  0  0  0  0
  7  5  1  0  0  0  0
  8  7  1  0  0  0  0
  8  3  2  0  0  0  0
  9  8  1  0  0  0  0
 10  9  1  0  0  0  0
 11 10  2  0  0  0  0
 12 11  1  0  0  0  0
 13 10  1  0  0  0  0
 13 14  2  0  0  0  0
 15 13  1  0  0  0  0
 16 15  2  0  0  0  0
 16 11  1  0  0  0  0
 17 16  1  0  0  0  0
 18 17  2  0  0  0  0
 18 19  1  0  0  0  0
 19 12  2  0  0  0  0
 20 19  1  0  0  0  0
 20 21  2  0  0  0  0
 22 20  2  0  0  0  0
 23 25  1  0  0  0  0
 23 20  1  0  0  0  0
 24 23  1  0  0  0  0
 25 31  1  0  0  0  0
 26 25  2  0  0  0  0
 26 27  1  0  0  0  0
 27 29  2  0  0  0  0
 28 27  1  0  0  0  0
 29 30  1  0  0  0  0
 31 30  2  0  0  0  0
M  END
> <DRUGBANK_ID>
DB07369

> <DRUG_GROUPS>
experimental

> <GENERIC_NAME>
N-(3-chlorophenyl)-N-methyl-2-oxo-3-[(3,4,5-trimethyl-1H-pyrrol-2-yl)methyl]-2H-indole-5-sulfonamide

> <CHEMICAL_FORMULA>
C23H22ClN3O3S

> <MOLECULAR_WEIGHT>
455.957

> <EXACT_MASS>
455.107039982

> <IUPAC_NAME>
N-(3-chlorophenyl)-N-methyl-2-oxo-3-[(3,4,5-trimethyl-1H-pyrrol-2-yl)methyl]-2H-indole-5-sulfonamide

> <IUPAC_TRADITIONAL_NAME>
N-(3-chlorophenyl)-N-methyl-2-oxo-3-[(3,4,5-trimethyl-1H-pyrrol-2-yl)methyl]indole-5-sulfonamide

> <INCHI_IDENTIFIER>
InChI=1S/C23H22ClN3O3S/c1-13-14(2)22(25-15(13)3)12-20-19-11-18(8-9-21(19)26-23(20)28)31(29,30)27(4)17-7-5-6-16(24)10-17/h5-11,25H,12H2,1-4H3

> <INCHI_KEY>
InChIKey=YMJLSOJLEXWATP-UHFFFAOYSA-N

> <SMILES>
CN(C1=CC(Cl)=CC=C1)S(=O)(=O)C1=CC2=C(CC3=C(C)C(C)=C(C)N3)C(=O)N=C2C=C1

> <JCHEM_ACCEPTOR_COUNT>
4

> <JCHEM_DONOR_COUNT>
1

> <JCHEM_ACIDIC_PKA>
18.21

> <JCHEM_BASIC_PKA>
-0.061

> <JCHEM_PHYSIOLOGICAL_CHARGE>
0

> <ALOGPS_LOGP>
3.5

> <JCHEM_LOGP>
3.77

> <ALOGPS_LOGS>
-5.6

> <JCHEM_POLARIZABILITY>
46.42

> <JCHEM_POLAR_SURFACE_AREA>
82.6

> <JCHEM_REFRACTIVITY>
126.45

> <JCHEM_ROTATABLE_BOND_COUNT>
4

> <ALOGPS_SOLUBILITY>
1.14e-03 g/l __ 

$$$$
