CPJ
  Mrv0541 02241213312D          

 32 33  0  0  0  0            999 V2000
   -5.9425    1.6278    0.0000 O   0  0  0  0  0  0  0  0  0  0  0  0
   -5.4122    0.9958    0.0000 C   0  0  0  0  0  0  0  0  0  0  0  0
   -5.6944    0.2205    0.0000 O   0  0  0  0  0  0  0  0  0  0  0  0
   -4.5998    1.1390    0.0000 C   0  0  1  0  0  0  0  0  0  0  0  0
   -3.8853    1.5515    0.0000 O   0  0  0  0  0  0  0  0  0  0  0  0
   -3.1708    1.1390    0.0000 C   0  0  0  0  0  0  0  0  0  0  0  0
   -4.8819    1.9143    0.0000 C   0  0  0  0  0  0  0  0  0  0  0  0
   -4.5998    0.3140    0.0000 O   0  0  0  0  0  0  0  0  0  0  0  0
   -3.8853   -0.0985    0.0000 C   0  0  0  0  0  0  0  0  0  0  0  0
   -3.1708    0.3140    0.0000 C   0  0  1  0  0  0  0  0  0  0  0  0
   -2.4563   -0.0985    0.0000 O   0  0  0  0  0  0  0  0  0  0  0  0
   -1.7419    0.3140    0.0000 C   0  0  0  0  0  0  0  0  0  0  0  0
   -1.7419    1.1390    0.0000 O   0  0  0  0  0  0  0  0  0  0  0  0
   -1.0274   -0.0985    0.0000 N   0  0  0  0  0  0  0  0  0  0  0  0
   -0.3129    0.3140    0.0000 C   0  0  0  0  0  0  0  0  0  0  0  0
    0.4015   -0.0985    0.0000 C   0  0  0  0  0  0  0  0  0  0  0  0
    1.1160    0.3140    0.0000 N   0  0  0  0  0  0  0  0  0  0  0  0
    1.8305   -0.0985    0.0000 C   0  0  0  0  0  0  0  0  0  0  0  0
    1.8305   -0.9235    0.0000 O   0  0  0  0  0  0  0  0  0  0  0  0
    2.5449    0.3140    0.0000 O   0  0  0  0  0  0  0  0  0  0  0  0
    3.2594   -0.0985    0.0000 C   0  0  1  0  0  0  0  0  0  0  0  0
    3.9739    0.3140    0.0000 C   0  0  0  0  0  0  0  0  0  0  0  0
    4.6884   -0.0985    0.0000 O   0  0  0  0  0  0  0  0  0  0  0  0
    3.2594   -0.9235    0.0000 C   0  0  0  0  0  0  0  0  0  0  0  0
    3.9739   -1.3360    0.0000 O   0  0  0  0  0  0  0  0  0  0  0  0
    4.6884   -0.9235    0.0000 C   0  0  2  0  0  0  0  0  0  0  0  0
    5.5129   -0.9523    0.0000 C   0  0  0  0  0  0  0  0  0  0  0  0
    5.1255   -1.6231    0.0000 C   0  0  0  0  0  0  0  0  0  0  0  0
    5.9500   -1.5943    0.0000 O   0  0  0  0  0  0  0  0  0  0  0  0
    4.7382   -2.3515    0.0000 O   0  0  0  0  0  0  0  0  0  0  0  0
   -2.6651    0.6060    0.0000 H   0  0  0  0  0  0  0  0  0  0  0  0
    3.2594    0.4855    0.0000 H   0  0  0  0  0  0  0  0  0  0  0  0
  1  2  1  0  0  0  0
  2  3  2  0  0  0  0
  4  2  1  6  0  0  0
  4  5  1  0  0  0  0
  4  7  1  1  0  0  0
  4  8  1  0  0  0  0
  5  6  1  0  0  0  0
  6 10  1  0  0  0  0
  8  9  1  0  0  0  0
  9 10  1  0  0  0  0
 10 11  1  6  0  0  0
 10 31  1  1  0  0  0
 11 12  1  0  0  0  0
 12 13  2  0  0  0  0
 12 14  1  0  0  0  0
 14 15  1  0  0  0  0
 15 16  1  0  0  0  0
 16 17  1  0  0  0  0
 17 18  1  0  0  0  0
 18 19  2  0  0  0  0
 18 20  1  0  0  0  0
 21 20  1  1  0  0  0
 21 22  1  0  0  0  0
 21 24  1  0  0  0  0
 21 32  1  6  0  0  0
 22 23  1  0  0  0  0
 23 26  1  0  0  0  0
 24 25  1  0  0  0  0
 25 26  1  0  0  0  0
 26 27  1  1  0  0  0
 26 28  1  6  0  0  0
 28 29  1  0  0  0  0
 28 30  2  0  0  0  0
M  END
> <DRUGBANK_ID>
DB07579

> <DRUG_GROUPS>
experimental

> <GENERIC_NAME>
BIS-1,2-{[(Z)-2-CARBOXY-2-METHYL-1,3-DIOXANE]-5-YLOXYCARBAMOYL}-ETHANE

> <CHEMICAL_FORMULA>
C16H24N2O12

> <MOLECULAR_WEIGHT>
436.368

> <EXACT_MASS>
436.132924242

> <IUPAC_NAME>
(2s,5s)-2-methyl-5-[({2-[({[(2r,5r)-2-carboxy-2-methyl-1,3-dioxan-5-yl]oxy}carbonyl)amino]ethyl}carbamoyl)oxy]-1,3-dioxane-2-carboxylic acid

> <IUPAC_TRADITIONAL_NAME>
(2s,5s)-2-methyl-5-[({2-[({[(2r,5r)-2-carboxy-2-methyl-1,3-dioxan-5-yl]oxy}carbonyl)amino]ethyl}carbamoyl)oxy]-1,3-dioxane-2-carboxylic acid

> <INCHI_IDENTIFIER>
InChI=1S/C16H24N2O12/c1-15(11(19)20)25-5-9(6-26-15)29-13(23)17-3-4-18-14(24)30-10-7-27-16(2,12(21)22)28-8-10/h9-10H,3-8H2,1-2H3,(H,17,23)(H,18,24)(H,19,20)(H,21,22)/t9-,10-,15-,16+

> <INCHI_KEY>
InChIKey=HAVIIPIIAVTNFO-YBHVHWSKSA-N

> <SMILES>
[H][C@@]1(CO[C@@](C)(OC1)C(O)=O)OC(=O)NCCNC(=O)O[C@@]1([H])CO[C@](C)(OC1)C(O)=O

> <JCHEM_ACCEPTOR_COUNT>
10

> <JCHEM_DONOR_COUNT>
4

> <JCHEM_ACIDIC_PKA>
2.62

> <JCHEM_BASIC_PKA>
-3.8

> <JCHEM_PHYSIOLOGICAL_CHARGE>
-2

> <ALOGPS_LOGP>
-0.87

> <JCHEM_LOGP>
-0.24

> <ALOGPS_LOGS>
-1.9

> <JCHEM_POLARIZABILITY>
40.67

> <JCHEM_POLAR_SURFACE_AREA>
188.18

> <JCHEM_REFRACTIVITY>
91.57

> <JCHEM_ROTATABLE_BOND_COUNT>
9

> <ALOGPS_SOLUBILITY>
5.02e+00 g/l __ 

$$$$
