DXC
  Mrv0541 02241213352D          

 36 39  0  0  0  0            999 V2000
    3.3927    0.7187    0.0000 C   0  0  1  0  0  0  0  0  0  0  0  0
    2.8608    1.3494    0.0000 C   0  0  0  0  0  0  0  0  0  0  0  0
    2.0487    1.2042    0.0000 C   0  0  2  0  0  0  0  0  0  0  0  0
    1.7684    0.4283    0.0000 C   0  0  2  0  0  0  0  0  0  0  0  0
    2.3002   -0.2024    0.0000 C   0  0  0  0  0  0  0  0  0  0  0  0
    3.1124   -0.0572    0.0000 C   0  0  0  0  0  0  0  0  0  0  0  0
    1.5169    1.8349    0.0000 C   0  0  0  0  0  0  0  0  0  0  0  0
    0.7048    1.6897    0.0000 C   0  0  0  0  0  0  0  0  0  0  0  0
    0.4245    0.9138    0.0000 C   0  0  2  0  0  0  0  0  0  0  0  0
    0.9563    0.2831    0.0000 C   0  0  2  0  0  0  0  0  0  0  0  0
   -0.3876    0.7685    0.0000 C   0  0  1  0  0  0  0  0  0  0  0  0
   -0.6679   -0.0074    0.0000 C   0  0  2  0  0  0  0  0  0  0  0  0
   -0.1361   -0.6381    0.0000 C   0  0  2  0  0  0  0  0  0  0  0  0
    0.6760   -0.4929    0.0000 C   0  0  0  0  0  0  0  0  0  0  0  0
   -1.0390    1.2749    0.0000 C   0  0  0  0  0  0  0  0  0  0  0  0
   -1.7218    0.8119    0.0000 C   0  0  0  0  0  0  0  0  0  0  0  0
   -1.4925    0.0194    0.0000 C   0  0  2  0  0  0  0  0  0  0  0  0
    1.4881   -0.3477    0.0000 C   0  0  0  0  0  0  0  0  0  0  0  0
   -1.9988   -0.6319    0.0000 C   0  0  1  0  0  0  0  0  0  0  0  0
   -0.4164   -1.4140    0.0000 O   0  0  0  0  0  0  0  0  0  0  0  0
    4.2048    0.8639    0.0000 O   0  0  0  0  0  0  0  0  0  0  0  0
   -1.0278   -0.7497    0.0000 C   0  0  0  0  0  0  0  0  0  0  0  0
   -2.8161   -0.5190    0.0000 C   0  0  0  0  0  0  0  0  0  0  0  0
   -3.3224   -1.1704    0.0000 C   0  0  0  0  0  0  0  0  0  0  0  0
   -4.1397   -1.0575    0.0000 C   0  0  0  0  0  0  0  0  0  0  0  0
   -4.6460   -1.7089    0.0000 O   0  0  0  0  0  0  0  0  0  0  0  0
   -4.4506   -0.2933    0.0000 O   0  0  0  0  0  0  0  0  0  0  0  0
   -1.6880   -1.3961    0.0000 C   0  0  0  0  0  0  0  0  0  0  0  0
    3.5911    1.2679    0.0000 H   0  0  0  0  0  0  0  0  0  0  0  0
    2.2471    1.7534    0.0000 H   0  0  0  0  0  0  0  0  0  0  0  0
    0.0481    1.3602    0.0000 H   0  0  0  0  0  0  0  0  0  0  0  0
    1.1573   -0.2652    0.0000 H   0  0  0  0  0  0  0  0  0  0  0  0
   -0.2477    1.3355    0.0000 H   0  0  0  0  0  0  0  0  0  0  0  0
   -0.7109   -0.7409    0.0000 H   0  0  0  0  0  0  0  0  0  0  0  0
   -1.2444   -0.5092    0.0000 H   0  0  0  0  0  0  0  0  0  0  0  0
   -2.2189   -0.0910    0.0000 H   0  0  0  0  0  0  0  0  0  0  0  0
  1  2  1  0  0  0  0
  1  6  1  0  0  0  0
  1 21  1  6  0  0  0
  1 29  1  1  0  0  0
  2  3  1  0  0  0  0
  3  4  1  0  0  0  0
  3  7  1  0  0  0  0
  3 30  1  1  0  0  0
  4  5  1  0  0  0  0
  4 10  1  0  0  0  0
  4 18  1  1  0  0  0
  5  6  1  0  0  0  0
  7  8  1  0  0  0  0
  8  9  1  0  0  0  0
  9 10  1  0  0  0  0
  9 11  1  0  0  0  0
  9 31  1  1  0  0  0
 10 14  1  0  0  0  0
 10 32  1  6  0  0  0
 11 12  1  0  0  0  0
 11 15  1  0  0  0  0
 11 33  1  6  0  0  0
 12 13  1  0  0  0  0
 12 17  1  0  0  0  0
 12 22  1  1  0  0  0
 13 14  1  0  0  0  0
 13 20  1  6  0  0  0
 13 34  1  1  0  0  0
 15 16  1  0  0  0  0
 16 17  1  0  0  0  0
 17 19  1  1  0  0  0
 17 35  1  6  0  0  0
 19 23  1  0  0  0  0
 19 28  1  1  0  0  0
 19 36  1  1  0  0  0
 23 24  1  0  0  0  0
 24 25  1  0  0  0  0
 25 26  2  0  0  0  0
 25 27  1  0  0  0  0
M  END
> <DRUGBANK_ID>
DB07690

> <DRUG_GROUPS>
experimental

> <GENERIC_NAME>
(3ALPHA,5BETA,12ALPHA)-3,12-DIHYDROXYCHOLAN-24-OIC ACID

> <CHEMICAL_FORMULA>
C24H40O4

> <MOLECULAR_WEIGHT>
392.572

> <EXACT_MASS>
392.292659768

> <IUPAC_NAME>
(4R)-4-[(1S,2S,5R,7R,10R,11S,14R,15R,16S)-5,16-dihydroxy-2,15-dimethyltetracyclo[8.7.0.0^{2,7}.0^{11,15}]heptadecan-14-yl]pentanoic acid

> <IUPAC_TRADITIONAL_NAME>
deoxycholic acid

> <INCHI_IDENTIFIER>
InChI=1S/C24H40O4/c1-14(4-9-22(27)28)18-7-8-19-17-6-5-15-12-16(25)10-11-23(15,2)20(17)13-21(26)24(18,19)3/h14-21,25-26H,4-13H2,1-3H3,(H,27,28)/t14-,15-,16-,17+,18-,19+,20+,21+,23+,24-/m1/s1

> <INCHI_KEY>
InChIKey=KXGVEGMKQFWNSR-LLQZFEROSA-N

> <SMILES>
[H][C@@](C)(CCC(O)=O)[C@@]1([H])CC[C@@]2([H])[C@]3([H])CC[C@]4([H])C[C@]([H])(O)CC[C@]4(C)[C@@]3([H])C[C@]([H])(O)[C@]12C

> <JCHEM_ACCEPTOR_COUNT>
4

> <JCHEM_DONOR_COUNT>
3

> <JCHEM_ACIDIC_PKA>
4.65

> <JCHEM_BASIC_PKA>
-0.35

> <JCHEM_PHYSIOLOGICAL_CHARGE>
-1

> <ALOGPS_LOGP>
3.3

> <JCHEM_LOGP>
3.79

> <ALOGPS_LOGS>
-4.3

> <JCHEM_POLARIZABILITY>
46.28

> <JCHEM_POLAR_SURFACE_AREA>
77.76

> <JCHEM_REFRACTIVITY>
109.2

> <JCHEM_ROTATABLE_BOND_COUNT>
4

> <ALOGPS_SOLUBILITY>
1.73e-02 g/l __ 

$$$$
