II4
  Mrv0541 02241213462D          

 17 19  0  0  0  0            999 V2000
    1.4367   -1.5029    0.0000 C   0  0  0  0  0  0  0  0  0  0  0  0
    0.7222   -1.9154    0.0000 C   0  0  0  0  0  0  0  0  0  0  0  0
    0.0077   -1.5029    0.0000 C   0  0  0  0  0  0  0  0  0  0  0  0
    0.0077   -0.6779    0.0000 C   0  0  0  0  0  0  0  0  0  0  0  0
    0.7222   -0.2654    0.0000 C   0  0  0  0  0  0  0  0  0  0  0  0
   -0.1827    2.3725    0.0000 C   0  0  0  0  0  0  0  0  0  0  0  0
   -0.7769   -0.4229    0.0000 N   0  0  0  0  0  0  0  0  0  0  0  0
   -1.2618   -1.0904    0.0000 C   0  0  0  0  0  0  0  0  0  0  0  0
   -0.7769   -1.7578    0.0000 N   0  0  0  0  0  0  0  0  0  0  0  0
    2.1511   -1.9154    0.0000 N   0  0  0  0  0  0  0  0  0  0  0  0
   -0.7347    1.7594    0.0000 C   0  0  0  0  0  0  0  0  0  0  0  0
   -0.4798    0.9748    0.0000 C   0  0  0  0  0  0  0  0  0  0  0  0
    1.4367   -0.6779    0.0000 C   0  0  0  0  0  0  0  0  0  0  0  0
   -1.8388    0.5332    0.0000 C   0  0  0  0  0  0  0  0  0  0  0  0
   -1.0318    0.3617    0.0000 C   0  0  0  0  0  0  0  0  0  0  0  0
   -2.0937    1.3178    0.0000 C   0  0  0  0  0  0  0  0  0  0  0  0
   -1.5417    1.9309    0.0000 C   0  0  0  0  0  0  0  0  0  0  0  0
  1  2  1  0  0  0  0
  1 10  1  0  0  0  0
  1 13  2  0  0  0  0
  2  3  2  0  0  0  0
  3  4  1  0  0  0  0
  3  9  1  0  0  0  0
  4  5  2  0  0  0  0
  4  7  1  0  0  0  0
  5 13  1  0  0  0  0
  6 11  1  0  0  0  0
  7  8  1  0  0  0  0
  7 15  1  0  0  0  0
  8  9  2  0  0  0  0
 11 12  1  0  0  0  0
 11 17  2  0  0  0  0
 12 15  2  0  0  0  0
 14 15  1  0  0  0  0
 14 16  2  0  0  0  0
 16 17  1  0  0  0  0
M  END
> <DRUGBANK_ID>
DB07972

> <DRUG_GROUPS>
experimental

> <GENERIC_NAME>
1-(3-METHYLPHENYL)-1H-BENZIMIDAZOL-5-AMINE

> <CHEMICAL_FORMULA>
C14H13N3

> <MOLECULAR_WEIGHT>
223.2731

> <EXACT_MASS>
223.110947431

> <IUPAC_NAME>
1-(3-methylphenyl)-1H-1,3-benzodiazol-5-amine

> <IUPAC_TRADITIONAL_NAME>
1-(3-methylphenyl)-1,3-benzodiazol-5-amine

> <INCHI_IDENTIFIER>
InChI=1S/C14H13N3/c1-10-3-2-4-12(7-10)17-9-16-13-8-11(15)5-6-14(13)17/h2-9H,15H2,1H3

> <INCHI_KEY>
InChIKey=VFSVFGIODYZMOF-UHFFFAOYSA-N

> <SMILES>
CC1=CC=CC(=C1)N1C=NC2=CC(N)=CC=C12

> <JCHEM_ACCEPTOR_COUNT>
2

> <JCHEM_DONOR_COUNT>
1

> <JCHEM_BASIC_PKA>
6.77

> <JCHEM_PHYSIOLOGICAL_CHARGE>
0

> <ALOGPS_LOGP>
2.84

> <JCHEM_LOGP>
2.44

> <ALOGPS_LOGS>
-3

> <JCHEM_POLARIZABILITY>
24.96

> <JCHEM_POLAR_SURFACE_AREA>
43.84

> <JCHEM_REFRACTIVITY>
79.7

> <JCHEM_ROTATABLE_BOND_COUNT>
1

> <ALOGPS_SOLUBILITY>
2.08e-01 g/l __ 

$$$$
