BPS
  Mrv0541 02241213272D          

 15 16  0  0  0  0            999 V2000
   -1.0835    0.2347    0.0000 C   0  0  0  0  0  0  0  0  0  0  0  0
   -0.3691   -0.1778    0.0000 C   0  0  0  0  0  0  0  0  0  0  0  0
   -0.3691   -1.0028    0.0000 C   0  0  0  0  0  0  0  0  0  0  0  0
   -1.0835   -1.4153    0.0000 C   0  0  0  0  0  0  0  0  0  0  0  0
   -1.7980   -1.0028    0.0000 C   0  0  0  0  0  0  0  0  0  0  0  0
   -1.7980   -0.1778    0.0000 C   0  0  0  0  0  0  0  0  0  0  0  0
    0.3454    0.2347    0.0000 C   0  0  0  0  0  0  0  0  0  0  0  0
    0.3454    1.0597    0.0000 C   0  0  0  0  0  0  0  0  0  0  0  0
    1.0599    1.4722    0.0000 C   0  0  0  0  0  0  0  0  0  0  0  0
    1.7743    1.0597    0.0000 C   0  0  0  0  0  0  0  0  0  0  0  0
    1.7743    0.2347    0.0000 C   0  0  0  0  0  0  0  0  0  0  0  0
    1.0599   -0.1778    0.0000 C   0  0  0  0  0  0  0  0  0  0  0  0
    0.3454   -1.4153    0.0000 S   0  0  1  0  0  0  0  0  0  0  0  0
    0.3454   -2.2403    0.0000 O   0  0  0  0  0  0  0  0  0  0  0  0
    1.0599   -1.0028    0.0000 O   0  0  0  0  0  0  0  0  0  0  0  0
  1  2  2  0  0  0  0
  1  6  1  0  0  0  0
  2  3  1  0  0  0  0
  2  7  1  0  0  0  0
  3  4  2  0  0  0  0
  3 13  1  0  0  0  0
  4  5  1  0  0  0  0
  5  6  2  0  0  0  0
  7  8  1  0  0  0  0
  7 12  2  0  0  0  0
  8  9  2  0  0  0  0
  9 10  1  0  0  0  0
 10 11  2  0  0  0  0
 11 12  1  0  0  0  0
 13 14  1  6  0  0  0
 13 15  2  0  0  0  0
M  END
> <DRUGBANK_ID>
DB07483

> <DRUG_GROUPS>
experimental

> <GENERIC_NAME>
1,1'-BIPHENYL-2-SULFINIC ACID

> <CHEMICAL_FORMULA>
C12H10O2S

> <MOLECULAR_WEIGHT>
218.272

> <EXACT_MASS>
218.040150254

> <IUPAC_NAME>
(R)-2-phenylbenzene-1-sulfinic acid

> <IUPAC_TRADITIONAL_NAME>
(R)-2-phenylbenzenesulfinic acid

> <INCHI_IDENTIFIER>
InChI=1S/C12H10O2S/c13-15(14)12-9-5-4-8-11(12)10-6-2-1-3-7-10/h1-9H,(H,13,14)

> <INCHI_KEY>
InChIKey=LZCLZDCSBDVAOV-UHFFFAOYSA-N

> <SMILES>
O[S@@](=O)C1=CC=CC=C1C1=CC=CC=C1

> <JCHEM_ACCEPTOR_COUNT>
2

> <JCHEM_DONOR_COUNT>
1

> <JCHEM_ACIDIC_PKA>
0.96

> <JCHEM_PHYSIOLOGICAL_CHARGE>
-1

> <ALOGPS_LOGP>
2.29

> <JCHEM_LOGP>
2.58

> <ALOGPS_LOGS>
-2.1

> <JCHEM_POLARIZABILITY>
22.3

> <JCHEM_POLAR_SURFACE_AREA>
37.3

> <JCHEM_REFRACTIVITY>
62.34

> <JCHEM_ROTATABLE_BOND_COUNT>
2

> <ALOGPS_SOLUBILITY>
1.69e+00 g/l __ 

$$$$
