92G
  Mrv0541 02241213202D          

 13 14  0  0  0  0            999 V2000
    0.1141    2.7460    0.0000 O   0  0  0  0  0  0  0  0  0  0  0  0
    0.8285    0.6835    0.0000 C   0  0  0  0  0  0  0  0  0  0  0  0
    0.8285    1.5085    0.0000 C   0  0  0  0  0  0  0  0  0  0  0  0
    0.1141    1.9210    0.0000 C   0  0  0  0  0  0  0  0  0  0  0  0
   -0.6004    0.6835    0.0000 C   0  0  0  0  0  0  0  0  0  0  0  0
   -0.6004    1.5085    0.0000 C   0  0  0  0  0  0  0  0  0  0  0  0
    0.1141    0.2710    0.0000 C   0  0  0  0  0  0  0  0  0  0  0  0
    0.1141   -0.5540    0.0000 C   0  0  0  0  0  0  0  0  0  0  0  0
    0.5266   -1.8236    0.0000 C   0  0  0  0  0  0  0  0  0  0  0  0
   -0.5534   -1.0389    0.0000 C   0  0  0  0  0  0  0  0  0  0  0  0
   -0.2984   -1.8236    0.0000 S   0  0  0  0  0  0  0  0  0  0  0  0
    0.7815   -1.0389    0.0000 N   0  0  0  0  0  0  0  0  0  0  0  0
    1.0115   -2.4910    0.0000 N   0  0  0  0  0  0  0  0  0  0  0  0
  1  4  1  0  0  0  0
  2  7  1  0  0  0  0
  3  2  2  0  0  0  0
  3  4  1  0  0  0  0
  4  6  2  0  0  0  0
  6  5  1  0  0  0  0
  7  5  2  0  0  0  0
  7  8  1  0  0  0  0
  8 12  1  0  0  0  0
  9 13  1  0  0  0  0
 10  8  2  0  0  0  0
 10 11  1  0  0  0  0
 11  9  1  0  0  0  0
 12  9  2  0  0  0  0
M  END
> <DRUGBANK_ID>
DB07292

> <DRUG_GROUPS>
experimental

> <GENERIC_NAME>
4-(2-amino-1,3-thiazol-4-yl)phenol

> <CHEMICAL_FORMULA>
C9H8N2OS

> <MOLECULAR_WEIGHT>
192.238

> <EXACT_MASS>
192.035733578

> <IUPAC_NAME>
4-(2-amino-1,3-thiazol-4-yl)phenol

> <IUPAC_TRADITIONAL_NAME>
4-(2-amino-1,3-thiazol-4-yl)phenol

> <INCHI_IDENTIFIER>
InChI=1S/C9H8N2OS/c10-9-11-8(5-13-9)6-1-3-7(12)4-2-6/h1-5,12H,(H2,10,11)

> <INCHI_KEY>
InChIKey=QGSJYYIRAFRPIT-UHFFFAOYSA-N

> <SMILES>
NC1=NC(=CS1)C1=CC=C(O)C=C1

> <JCHEM_ACCEPTOR_COUNT>
3

> <JCHEM_DONOR_COUNT>
2

> <JCHEM_ACIDIC_PKA>
9.46

> <JCHEM_BASIC_PKA>
4.08

> <JCHEM_PHYSIOLOGICAL_CHARGE>
0

> <ALOGPS_LOGP>
1.94

> <JCHEM_LOGP>
2.22

> <ALOGPS_LOGS>
-2.1

> <JCHEM_POLARIZABILITY>
19.65

> <JCHEM_POLAR_SURFACE_AREA>
59.14

> <JCHEM_REFRACTIVITY>
52.19

> <JCHEM_ROTATABLE_BOND_COUNT>
1

> <ALOGPS_SOLUBILITY>
1.36e+00 g/l __ 

$$$$
