5HD
  Mrv0541 02241213152D          

 14 13  0  0  0  0            999 V2000
   -1.3303   -0.0978    0.0000 C   0  0  0  0  0  0  0  0  0  0  0  0
   -2.0447   -0.5103    0.0000 C   0  0  0  0  0  0  0  0  0  0  0  0
   -2.7592   -0.0978    0.0000 C   0  0  0  0  0  0  0  0  0  0  0  0
    3.6710   -0.5103    0.0000 O   0  0  0  0  0  0  0  0  0  0  0  0
    2.9566   -0.0978    0.0000 C   0  0  0  0  0  0  0  0  0  0  0  0
    2.2421   -0.5103    0.0000 C   0  0  0  0  0  0  0  0  0  0  0  0
    1.5276   -0.0978    0.0000 C   0  0  0  0  0  0  0  0  0  0  0  0
    0.8132   -0.5103    0.0000 C   0  0  0  0  0  0  0  0  0  0  0  0
    0.0987   -0.0978    0.0000 C   0  0  0  0  0  0  0  0  0  0  0  0
    0.0987    0.7272    0.0000 C   0  0  0  0  0  0  0  0  0  0  0  0
   -0.6158    1.1397    0.0000 C   0  0  0  0  0  0  0  0  0  0  0  0
   -0.6158    1.9647    0.0000 O   0  0  0  0  0  0  0  0  0  0  0  0
   -0.6158   -0.5103    0.0000 C   0  0  0  0  0  0  0  0  0  0  0  0
   -3.4737   -0.5103    0.0000 O   0  0  0  0  0  0  0  0  0  0  0  0
  1  2  1  0  0  0  0
  2  3  1  0  0  0  0
  3 14  1  0  0  0  0
  5  4  1  0  0  0  0
  5  6  1  0  0  0  0
  6  7  1  0  0  0  0
  7  8  1  0  0  0  0
  9  8  1  0  0  0  0
  9 13  1  0  0  0  0
 10  9  1  0  0  0  0
 11 10  1  0  0  0  0
 12 11  1  0  0  0  0
 13  1  1  0  0  0  0
M  END
> <DRUGBANK_ID>
DB07171

> <DRUG_GROUPS>
experimental

> <GENERIC_NAME>
5-(2-hydroxyethyl)nonane-1,9-diol

> <CHEMICAL_FORMULA>
C11H24O3

> <MOLECULAR_WEIGHT>
204.3065

> <EXACT_MASS>
204.172544634

> <IUPAC_NAME>
5-(2-hydroxyethyl)nonane-1,9-diol

> <IUPAC_TRADITIONAL_NAME>
5-(2-hydroxyethyl)nonane-1,9-diol

> <INCHI_IDENTIFIER>
InChI=1S/C11H24O3/c12-8-3-1-5-11(7-10-14)6-2-4-9-13/h11-14H,1-10H2

> <INCHI_KEY>
InChIKey=VICIXNZSEUYGFV-UHFFFAOYSA-N

> <SMILES>
OCCCCC(CCO)CCCCO

> <JCHEM_ACCEPTOR_COUNT>
3

> <JCHEM_DONOR_COUNT>
3

> <JCHEM_ACIDIC_PKA>
16.84

> <JCHEM_BASIC_PKA>
-1.5

> <JCHEM_PHYSIOLOGICAL_CHARGE>
0

> <ALOGPS_LOGP>
1.85

> <JCHEM_LOGP>
0.89

> <ALOGPS_LOGS>
-2

> <JCHEM_POLARIZABILITY>
25.22

> <JCHEM_POLAR_SURFACE_AREA>
60.69

> <JCHEM_REFRACTIVITY>
58.15

> <JCHEM_ROTATABLE_BOND_COUNT>
10

> <ALOGPS_SOLUBILITY>
1.99e+00 g/l __ 

$$$$
