I38
  Mrv0541 02241213452D          

 12 11  0  0  0  0            999 V2000
   -2.5839   -0.2287    0.0000 S   0  0  0  0  0  0  0  0  0  0  0  0
   -1.8693    0.1838    0.0000 C   0  0  0  0  0  0  0  0  0  0  0  0
   -1.1548   -0.2287    0.0000 C   0  0  0  0  0  0  0  0  0  0  0  0
   -0.4403    0.1838    0.0000 C   0  0  0  0  0  0  0  0  0  0  0  0
   -0.4403    1.0089    0.0000 O   0  0  0  0  0  0  0  0  0  0  0  0
    0.2742   -0.2287    0.0000 N   0  0  0  0  0  0  0  0  0  0  0  0
    0.9888    0.1838    0.0000 C   0  0  2  0  0  0  0  0  0  0  0  0
    0.9888    1.0089    0.0000 C   0  0  0  0  0  0  0  0  0  0  0  0
    1.7032   -0.2287    0.0000 C   0  0  0  0  0  0  0  0  0  0  0  0
    2.4178    0.1838    0.0000 O   0  0  0  0  0  0  0  0  0  0  0  0
    1.7032   -1.0538    0.0000 O   0  0  0  0  0  0  0  0  0  0  0  0
    0.4830    0.4758    0.0000 H   0  0  0  0  0  0  0  0  0  0  0  0
  1  2  1  0  0  0  0
  2  3  1  0  0  0  0
  3  4  1  0  0  0  0
  4  5  2  0  0  0  0
  4  6  1  0  0  0  0
  6  7  1  0  0  0  0
  7  8  1  6  0  0  0
  7  9  1  0  0  0  0
  7 12  1  1  0  0  0
  9 10  2  0  0  0  0
  9 11  1  0  0  0  0
M  END
> <DRUGBANK_ID>
DB07939

> <DRUG_GROUPS>
experimental

> <GENERIC_NAME>
N-(3-MERCAPTOPROPANOYL)-D-ALANINE

> <CHEMICAL_FORMULA>
C6H11NO3S

> <MOLECULAR_WEIGHT>
177.221

> <EXACT_MASS>
177.045963913

> <IUPAC_NAME>
(2R)-2-(3-sulfanylpropanamido)propanoic acid

> <IUPAC_TRADITIONAL_NAME>
(2R)-2-(3-sulfanylpropanamido)propanoic acid

> <INCHI_IDENTIFIER>
InChI=1S/C6H11NO3S/c1-4(6(9)10)7-5(8)2-3-11/h4,11H,2-3H2,1H3,(H,7,8)(H,9,10)/t4-/m1/s1

> <INCHI_KEY>
InChIKey=JIAFOCJABIEPNM-SCSAIBSYSA-N

> <SMILES>
[H][C@](C)(NC(=O)CCS)C(O)=O

> <JCHEM_ACCEPTOR_COUNT>
3

> <JCHEM_DONOR_COUNT>
3

> <JCHEM_ACIDIC_PKA>
3.95

> <JCHEM_BASIC_PKA>
-1.8

> <JCHEM_PHYSIOLOGICAL_CHARGE>
-1

> <ALOGPS_LOGP>
0.35

> <JCHEM_LOGP>
-0.089

> <ALOGPS_LOGS>
-1.7

> <JCHEM_POLARIZABILITY>
17.56

> <JCHEM_POLAR_SURFACE_AREA>
66.4

> <JCHEM_REFRACTIVITY>
42.37

> <JCHEM_ROTATABLE_BOND_COUNT>
4

> <ALOGPS_SOLUBILITY>
3.75e+00 g/l __ 

$$$$
