BP4
  Mrv0541 02241213272D          

 16 17  0  0  0  0            999 V2000
    0.2745   -2.2010    0.0000 C   0  0  0  0  0  0  0  0  0  0  0  0
   -0.4400   -2.6135    0.0000 C   0  0  0  0  0  0  0  0  0  0  0  0
   -0.4400   -3.4385    0.0000 O   0  0  0  0  0  0  0  0  0  0  0  0
    0.2745    0.2740    0.0000 C   0  0  0  0  0  0  0  0  0  0  0  0
    0.9890   -0.1385    0.0000 C   0  0  0  0  0  0  0  0  0  0  0  0
    0.9890   -0.9635    0.0000 C   0  0  0  0  0  0  0  0  0  0  0  0
    0.2745   -1.3760    0.0000 C   0  0  0  0  0  0  0  0  0  0  0  0
   -0.4400   -0.9635    0.0000 C   0  0  0  0  0  0  0  0  0  0  0  0
   -0.4400   -0.1385    0.0000 C   0  0  0  0  0  0  0  0  0  0  0  0
    0.2745    2.7490    0.0000 C   0  0  0  0  0  0  0  0  0  0  0  0
    0.9890    1.5115    0.0000 C   0  0  0  0  0  0  0  0  0  0  0  0
    0.2745    1.0990    0.0000 C   0  0  0  0  0  0  0  0  0  0  0  0
    0.9890    2.3365    0.0000 C   0  0  0  0  0  0  0  0  0  0  0  0
   -0.4400    1.5115    0.0000 C   0  0  0  0  0  0  0  0  0  0  0  0
   -0.4400    2.3365    0.0000 C   0  0  0  0  0  0  0  0  0  0  0  0
   -1.1545   -2.2010    0.0000 O   0  0  0  0  0  0  0  0  0  0  0  0
  1  2  1  0  0  0  0
  1  7  1  0  0  0  0
  2  3  2  0  0  0  0
  2 16  1  0  0  0  0
  4  5  2  0  0  0  0
  4  9  1  0  0  0  0
  4 12  1  0  0  0  0
  5  6  1  0  0  0  0
  6  7  2  0  0  0  0
  7  8  1  0  0  0  0
  8  9  2  0  0  0  0
 10 13  2  0  0  0  0
 10 15  1  0  0  0  0
 11 12  2  0  0  0  0
 11 13  1  0  0  0  0
 12 14  1  0  0  0  0
 14 15  2  0  0  0  0
M  END
> <DRUGBANK_ID>
DB07477

> <DRUG_GROUPS>
experimental

> <GENERIC_NAME>
BIPHENYL-4-YL-ACETALDEHYDE

> <CHEMICAL_FORMULA>
C14H12O2

> <MOLECULAR_WEIGHT>
212.2439

> <EXACT_MASS>
212.083729628

> <IUPAC_NAME>
2-(4-phenylphenyl)acetic acid

> <IUPAC_TRADITIONAL_NAME>
felbinac

> <INCHI_IDENTIFIER>
InChI=1S/C14H12O2/c15-14(16)10-11-6-8-13(9-7-11)12-4-2-1-3-5-12/h1-9H,10H2,(H,15,16)

> <INCHI_KEY>
InChIKey=QRZAKQDHEVVFRX-UHFFFAOYSA-N

> <SMILES>
OC(=O)CC1=CC=C(C=C1)C1=CC=CC=C1

> <JCHEM_ACCEPTOR_COUNT>
2

> <JCHEM_DONOR_COUNT>
1

> <JCHEM_ACIDIC_PKA>
4.71

> <JCHEM_PHYSIOLOGICAL_CHARGE>
-1

> <ALOGPS_LOGP>
3.49

> <JCHEM_LOGP>
3.26

> <ALOGPS_LOGS>
-3.8

> <JCHEM_POLARIZABILITY>
23.13

> <JCHEM_POLAR_SURFACE_AREA>
37.3

> <JCHEM_REFRACTIVITY>
62.5

> <JCHEM_ROTATABLE_BOND_COUNT>
3

> <ALOGPS_SOLUBILITY>
3.72e-02 g/l __ 

$$$$
