FAP
  Mrv0541 02241213372D          

 31 33  0  0  0  0            999 V2000
   -0.0468   -0.2046    0.0000 C   0  0  0  0  0  0  0  0  0  0  0  0
   -2.1902   -0.6171    0.0000 C   0  0  0  0  0  0  0  0  0  0  0  0
   -1.4758    0.6204    0.0000 C   0  0  0  0  0  0  0  0  0  0  0  0
   -2.1902    1.0329    0.0000 C   0  0  0  0  0  0  0  0  0  0  0  0
   -2.9047    0.6204    0.0000 C   0  0  0  0  0  0  0  0  0  0  0  0
   -0.0468    0.6204    0.0000 C   0  0  0  0  0  0  0  0  0  0  0  0
    0.6677    1.0329    0.0000 C   0  0  0  0  0  0  0  0  0  0  0  0
    1.3821    0.6204    0.0000 C   0  0  0  0  0  0  0  0  0  0  0  0
    1.3821   -0.2046    0.0000 C   0  0  0  0  0  0  0  0  0  0  0  0
   -2.9047   -0.2046    0.0000 N   0  0  0  0  0  0  0  0  0  0  0  0
   -1.4758   -0.2046    0.0000 N   0  0  0  0  0  0  0  0  0  0  0  0
   -3.6192    1.0329    0.0000 N   0  0  0  0  0  0  0  0  0  0  0  0
   -0.7613    1.0329    0.0000 N   0  0  0  0  0  0  0  0  0  0  0  0
    0.6677   -0.6171    0.0000 C   0  0  0  0  0  0  0  0  0  0  0  0
    2.0966   -0.6171    0.0000 O   0  0  0  0  0  0  0  0  0  0  0  0
    2.8111   -0.2046    0.0000 C   0  0  0  0  0  0  0  0  0  0  0  0
   -5.7626   -0.2046    0.0000 C   0  0  0  0  0  0  0  0  0  0  0  0
   -5.7626    0.6204    0.0000 C   0  0  0  0  0  0  0  0  0  0  0  0
   -5.0481    1.0329    0.0000 C   0  0  0  0  0  0  0  0  0  0  0  0
   -4.3336    0.6204    0.0000 C   0  0  0  0  0  0  0  0  0  0  0  0
   -5.0481   -0.6171    0.0000 C   0  0  0  0  0  0  0  0  0  0  0  0
   -4.3336   -0.2046    0.0000 C   0  0  0  0  0  0  0  0  0  0  0  0
   -5.0481    1.8579    0.0000 F   0  0  0  0  0  0  0  0  0  0  0  0
   -3.6192   -0.6171    0.0000 F   0  0  0  0  0  0  0  0  0  0  0  0
    3.5255   -0.6171    0.0000 C   0  0  2  0  0  0  0  0  0  0  0  0
    4.2400   -0.2046    0.0000 C   0  0  0  0  0  0  0  0  0  0  0  0
    4.9545   -0.6171    0.0000 N   0  0  0  0  0  0  0  0  0  0  0  0
    5.6690   -0.2046    0.0000 C   0  0  0  0  0  0  0  0  0  0  0  0
    4.9545   -1.4421    0.0000 C   0  0  0  0  0  0  0  0  0  0  0  0
    3.5255   -1.4421    0.0000 O   0  0  0  0  0  0  0  0  0  0  0  0
    3.5255   -0.0331    0.0000 H   0  0  0  0  0  0  0  0  0  0  0  0
  1  6  2  0  0  0  0
  1 14  1  0  0  0  0
  2 10  2  0  0  0  0
  2 11  1  0  0  0  0
  3  4  1  0  0  0  0
  3 11  2  0  0  0  0
  3 13  1  0  0  0  0
  4  5  2  0  0  0  0
  5 10  1  0  0  0  0
  5 12  1  0  0  0  0
  6  7  1  0  0  0  0
  6 13  1  0  0  0  0
  7  8  2  0  0  0  0
  8  9  1  0  0  0  0
  9 14  2  0  0  0  0
  9 15  1  0  0  0  0
 12 20  1  0  0  0  0
 15 16  1  0  0  0  0
 16 25  1  0  0  0  0
 17 18  2  0  0  0  0
 17 21  1  0  0  0  0
 18 19  1  0  0  0  0
 19 20  2  0  0  0  0
 19 23  1  0  0  0  0
 20 22  1  0  0  0  0
 21 22  2  0  0  0  0
 22 24  1  0  0  0  0
 25 26  1  0  0  0  0
 25 30  1  1  0  0  0
 25 31  1  1  0  0  0
 26 27  1  0  0  0  0
 27 28  1  0  0  0  0
 27 29  1  0  0  0  0
M  END
> <DRUGBANK_ID>
DB07751

> <DRUG_GROUPS>
experimental

> <GENERIC_NAME>
(2S)-1-[4-({6-[(2,6-DIFLUOROPHENYL)AMINO]PYRIMIDIN-4-YL}AMINO)PHENOXY]-3-(DIMETHYLAMINO)PROPAN-2-OL

> <CHEMICAL_FORMULA>
C21H23F2N5O2

> <MOLECULAR_WEIGHT>
415.4364

> <EXACT_MASS>
415.181981415

> <IUPAC_NAME>
4-N-(2,6-difluorophenyl)-6-N-{4-[(2S)-3-(dimethylamino)-2-hydroxypropoxy]phenyl}pyrimidine-4,6-diamine

> <IUPAC_TRADITIONAL_NAME>
4-N-(2,6-difluorophenyl)-6-N-{4-[(2S)-3-(dimethylamino)-2-hydroxypropoxy]phenyl}pyrimidine-4,6-diamine

> <INCHI_IDENTIFIER>
InChI=1S/C21H23F2N5O2/c1-28(2)11-15(29)12-30-16-8-6-14(7-9-16)26-19-10-20(25-13-24-19)27-21-17(22)4-3-5-18(21)23/h3-10,13,15,29H,11-12H2,1-2H3,(H2,24,25,26,27)/t15-/m0/s1

> <INCHI_KEY>
InChIKey=ZVSBKYYVBCKDBO-HNNXBMFYSA-N

> <SMILES>
[H][C@@](O)(COC1=CC=C(NC2=NC=NC(NC3=C(F)C=CC=C3F)=C2)C=C1)CN(C)C

> <JCHEM_ACCEPTOR_COUNT>
7

> <JCHEM_DONOR_COUNT>
3

> <JCHEM_ACIDIC_PKA>
11.33

> <JCHEM_BASIC_PKA>
8.7

> <JCHEM_PHYSIOLOGICAL_CHARGE>
1

> <ALOGPS_LOGP>
3.45

> <JCHEM_LOGP>
3.63

> <ALOGPS_LOGS>
-4.1

> <JCHEM_POLARIZABILITY>
42.79

> <JCHEM_POLAR_SURFACE_AREA>
82.54

> <JCHEM_REFRACTIVITY>
111.2

> <JCHEM_ROTATABLE_BOND_COUNT>
9

> <ALOGPS_SOLUBILITY>
3.61e-02 g/l __ 

$$$$
