HM2
  Mrv0541 02241213432D          

 23 25  0  0  0  0            999 V2000
    0.8731   -1.3160    0.0000 N    0  0  0  0  0  0  0  0  0  0  0  0
   -0.5558   -0.4910    0.0000 N    0  0  0  0  0  0  0  0  0  0  0  0
   -1.2703   -1.7285    0.0000 N    0  0  0  0  0  0  0  0  0  0  0  0
   -1.2703    0.7465    0.0000 N    0  0  0  0  0  0  0  0  0  0  0  0
    1.5876   -1.7285    0.0000 C    0  0  0  0  0  0  0  0  0  0  0  0
    1.5876   -2.5535    0.0000 C    0  0  0  0  0  0  0  0  0  0  0  0
    0.8731   -2.9660    0.0000 C    0  0  0  0  0  0  0  0  0  0  0  0
    0.1586   -2.5535    0.0000 C    0  0  0  0  0  0  0  0  0  0  0  0
    0.1586   -1.7285    0.0000 C    0  0  0  0  0  0  0  0  0  0  0  0
   -0.5558   -1.3160    0.0000 C    0  0  0  0  0  0  0  0  0  0  0  0
   -1.2703   -0.0785    0.0000 C    0  0  0  0  0  0  0  0  0  0  0  0
   -1.9848   -1.3160    0.0000 C    0  0  0  0  0  0  0  0  0  0  0  0
   -1.9848   -0.4910    0.0000 C    0  0  0  0  0  0  0  0  0  0  0  0
   -0.5558    1.1590    0.0000 C    0  0  0  0  0  0  0  0  0  0  0  0
   -0.5558    1.9840    0.0000 C    0  0  0  0  0  0  0  0  0  0  0  0
    0.1586    2.3965    0.0000 C    0  0  0  0  0  0  0  0  0  0  0  0
    0.1586    3.2215    0.0000 C    0  0  0  0  0  0  0  0  0  0  0  0
    0.8731    3.6340    0.0000 C    0  0  0  0  0  0  0  0  0  0  0  0
    1.5876    3.2215    0.0000 C    0  0  0  0  0  0  0  0  0  0  0  0
    1.5876    2.3965    0.0000 C    0  0  0  0  0  0  0  0  0  0  0  0
    0.8731    1.9840    0.0000 C    0  0  0  0  0  0  0  0  0  0  0  0
   -2.6993   -1.7285    0.0000 C    0  0  0  0  0  0  0  0  0  0  0  0
   -2.6993   -0.0785    0.0000 Cl   0  0  0  0  0  0  0  0  0  0  0  0
  1  5  1  0  0  0  0
  1  9  2  0  0  0  0
  2 10  1  0  0  0  0
  2 11  2  0  0  0  0
  3 10  2  0  0  0  0
  3 12  1  0  0  0  0
  4 11  1  0  0  0  0
  4 14  1  0  0  0  0
  5  6  2  0  0  0  0
  6  7  1  0  0  0  0
  7  8  2  0  0  0  0
  8  9  1  0  0  0  0
  9 10  1  0  0  0  0
 11 13  1  0  0  0  0
 12 13  2  0  0  0  0
 12 22  1  0  0  0  0
 13 23  1  0  0  0  0
 14 15  1  0  0  0  0
 15 16  1  0  0  0  0
 16 17  1  0  0  0  0
 16 21  2  0  0  0  0
 17 18  2  0  0  0  0
 18 19  1  0  0  0  0
 19 20  2  0  0  0  0
 20 21  1  0  0  0  0
M  END
> <DRUGBANK_ID>
DB07901

> <DRUG_GROUPS>
experimental

> <GENERIC_NAME>
5-CHLORO-6-METHYL-N-(2-PHENYLETHYL)-2-PYRIDIN-2-YLPYRIMIDIN-4-AMINE

> <CHEMICAL_FORMULA>
C18H17ClN4

> <MOLECULAR_WEIGHT>
324.807

> <EXACT_MASS>
324.114174271

> <IUPAC_NAME>
5-chloro-6-methyl-N-(2-phenylethyl)-2-(pyridin-2-yl)pyrimidin-4-amine

> <IUPAC_TRADITIONAL_NAME>
5-chloro-6-methyl-N-(2-phenylethyl)-2-(pyridin-2-yl)pyrimidin-4-amine

> <INCHI_IDENTIFIER>
InChI=1S/C18H17ClN4/c1-13-16(19)18(21-12-10-14-7-3-2-4-8-14)23-17(22-13)15-9-5-6-11-20-15/h2-9,11H,10,12H2,1H3,(H,21,22,23)

> <INCHI_KEY>
InChIKey=HIUOABSWQSUEGK-UHFFFAOYSA-N

> <SMILES>
CC1=C(Cl)C(NCCC2=CC=CC=C2)=NC(=N1)C1=NC=CC=C1

> <JCHEM_ACCEPTOR_COUNT>
4

> <JCHEM_DONOR_COUNT>
1

> <JCHEM_ACIDIC_PKA>
17.94

> <JCHEM_BASIC_PKA>
4.1

> <JCHEM_PHYSIOLOGICAL_CHARGE>
0

> <ALOGPS_LOGP>
4.46

> <JCHEM_LOGP>
4.5

> <ALOGPS_LOGS>
-4.6

> <JCHEM_POLARIZABILITY>
35.32

> <JCHEM_POLAR_SURFACE_AREA>
50.7

> <JCHEM_REFRACTIVITY>
104.88

> <JCHEM_ROTATABLE_BOND_COUNT>
5

> <ALOGPS_SOLUBILITY>
8.31e-03 g/l __ 

$$$$
