PFJ
  Mrv0541 02241214042D          

 31 35  0  0  0  0            999 V2000
   -3.5205   -0.5502    0.0000 C   0  0  0  0  0  0  0  0  0  0  0  0
   -1.7302   -1.7988    0.0000 C   0  0  0  0  0  0  0  0  0  0  0  0
   -2.2151   -1.1314    0.0000 C   0  0  0  0  0  0  0  0  0  0  0  0
   -2.8862   -2.6387    0.0000 C   0  0  0  0  0  0  0  0  0  0  0  0
    1.8249   -1.9901    0.0000 C   0  0  0  0  0  0  0  0  0  0  0  0
    0.3097   -1.1697    0.0000 C   0  0  0  0  0  0  0  0  0  0  0  0
   -0.3577   -2.3257    0.0000 C   0  0  0  0  0  0  0  0  0  0  0  0
   -0.4972   -0.9981    0.0000 C   0  0  0  0  0  0  0  0  0  0  0  0
    3.2539   -1.1651    0.0000 C   0  0  0  0  0  0  0  0  0  0  0  0
   -1.2085    1.1296    0.0000 C   0  0  0  0  0  0  0  0  0  0  0  0
   -2.0289    1.0434    0.0000 O   0  0  0  0  0  0  0  0  0  0  0  0
   -2.3645    0.2897    0.0000 C   0  0  0  0  0  0  0  0  0  0  0  0
   -1.8796   -0.3777    0.0000 C   0  0  0  0  0  0  0  0  0  0  0  0
   -2.0658   -2.5525    0.0000 N   0  0  0  0  0  0  0  0  0  0  0  0
   -3.3712   -1.9713    0.0000 N   0  0  0  0  0  0  0  0  0  0  0  0
   -3.0356   -1.2176    0.0000 C   0  0  0  0  0  0  0  0  0  0  0  0
   -3.1850    0.2035    0.0000 C   0  0  0  0  0  0  0  0  0  0  0  0
   -3.6699    0.8709    0.0000 O   0  0  0  0  0  0  0  0  0  0  0  0
   -4.4904    0.7847    0.0000 C   0  0  0  0  0  0  0  0  0  0  0  0
   -0.9097   -1.7126    0.0000 N   0  0  0  0  0  0  0  0  0  0  0  0
    0.3960   -1.9901    0.0000 C   0  0  2  0  0  0  0  0  0  0  0  0
    1.1105   -2.4026    0.0000 O   0  0  0  0  0  0  0  0  0  0  0  0
    2.5394   -2.4026    0.0000 N   0  0  0  0  0  0  0  0  0  0  0  0
    3.2539   -1.9901    0.0000 C   0  0  0  0  0  0  0  0  0  0  0  0
    3.9683   -2.4026    0.0000 C   0  0  0  0  0  0  0  0  0  0  0  0
    4.6828   -1.9901    0.0000 C   0  0  0  0  0  0  0  0  0  0  0  0
    4.6828   -1.1651    0.0000 C   0  0  0  0  0  0  0  0  0  0  0  0
    3.9683   -0.7526    0.0000 C   0  0  0  0  0  0  0  0  0  0  0  0
    2.5394   -0.7526    0.0000 N   0  0  0  0  0  0  0  0  0  0  0  0
    1.8249   -1.1651    0.0000 C   0  0  0  0  0  0  0  0  0  0  0  0
    0.8857   -1.6721    0.0000 H   0  0  0  0  0  0  0  0  0  0  0  0
  1 17  1  0  0  0  0
  1 16  2  0  0  0  0
  2  3  1  0  0  0  0
  2 20  1  0  0  0  0
  2 14  2  0  0  0  0
  3 13  2  0  0  0  0
  3 16  1  0  0  0  0
  4 15  2  0  0  0  0
  4 14  1  0  0  0  0
  5 23  2  0  0  0  0
  5 30  1  0  0  0  0
  5 22  1  0  0  0  0
  6 21  1  0  0  0  0
  6  8  1  0  0  0  0
  7 21  1  0  0  0  0
  7 20  1  0  0  0  0
  8 20  1  0  0  0  0
  9 28  2  0  0  0  0
  9 24  1  0  0  0  0
  9 29  1  0  0  0  0
 10 11  1  0  0  0  0
 11 12  1  0  0  0  0
 12 17  2  0  0  0  0
 12 13  1  0  0  0  0
 15 16  1  0  0  0  0
 17 18  1  0  0  0  0
 18 19  1  0  0  0  0
 21 22  1  1  0  0  0
 21 31  1  6  0  0  0
 23 24  1  0  0  0  0
 24 25  2  0  0  0  0
 25 26  1  0  0  0  0
 26 27  2  0  0  0  0
 27 28  1  0  0  0  0
 29 30  2  0  0  0  0
M  END
> <DRUGBANK_ID>
DB08391

> <DRUG_GROUPS>
experimental

> <GENERIC_NAME>
6,7-DIMETHOXY-4-[(3R)-3-(QUINOXALIN-2-YLOXY)PYRROLIDIN-1-YL]QUINAZOLINE

> <CHEMICAL_FORMULA>
C22H21N5O3

> <MOLECULAR_WEIGHT>
403.4338

> <EXACT_MASS>
403.164439563

> <IUPAC_NAME>
6,7-dimethoxy-4-[(3R)-3-(quinoxalin-2-yloxy)pyrrolidin-1-yl]quinazoline

> <IUPAC_TRADITIONAL_NAME>
6,7-dimethoxy-4-[(3R)-3-(quinoxalin-2-yloxy)pyrrolidin-1-yl]quinazoline

> <INCHI_IDENTIFIER>
InChI=1S/C22H21N5O3/c1-28-19-9-15-18(10-20(19)29-2)24-13-25-22(15)27-8-7-14(12-27)30-21-11-23-16-5-3-4-6-17(16)26-21/h3-6,9-11,13-14H,7-8,12H2,1-2H3/t14-/m1/s1

> <INCHI_KEY>
InChIKey=UBIIFKJMNRPNMT-CQSZACIVSA-N

> <SMILES>
[H][C@]1(CCN(C1)C1=NC=NC2=CC(OC)=C(OC)C=C12)OC1=NC2=CC=CC=C2N=C1

> <JCHEM_ACCEPTOR_COUNT>
8

> <JCHEM_DONOR_COUNT>
0

> <JCHEM_BASIC_PKA>
5.37

> <JCHEM_PHYSIOLOGICAL_CHARGE>
0

> <ALOGPS_LOGP>
3.1

> <JCHEM_LOGP>
3.32

> <ALOGPS_LOGS>
-3.8

> <JCHEM_POLARIZABILITY>
42.39

> <JCHEM_POLAR_SURFACE_AREA>
82.49

> <JCHEM_REFRACTIVITY>
111.29

> <JCHEM_ROTATABLE_BOND_COUNT>
5

> <ALOGPS_SOLUBILITY>
6.08e-02 g/l __ 

$$$$
