KS4
  Mrv0541 02241213492D          

 24 27  0  0  0  0            999 V2000
   -1.1137    2.7124    0.0000 C   0  0  0  0  0  0  0  0  0  0  0  0
   -0.7392    3.4475    0.0000 C   0  0  0  0  0  0  0  0  0  0  0  0
   -0.0041    3.0730    0.0000 C   0  0  0  0  0  0  0  0  0  0  0  0
   -0.3786    2.3379    0.0000 C   0  0  0  0  0  0  0  0  0  0  0  0
   -0.1237    1.5533    0.0000 N   0  0  0  0  0  0  0  0  0  0  0  0
   -0.6086    0.8858    0.0000 N   0  0  0  0  0  0  0  0  0  0  0  0
    0.6609    1.2983    0.0000 C   0  0  0  0  0  0  0  0  0  0  0  0
    1.3754    1.7108    0.0000 N   0  0  0  0  0  0  0  0  0  0  0  0
    2.0899    1.2983    0.0000 C   0  0  0  0  0  0  0  0  0  0  0  0
    2.0899    0.4733    0.0000 N   0  0  0  0  0  0  0  0  0  0  0  0
    1.3754    0.0608    0.0000 C   0  0  0  0  0  0  0  0  0  0  0  0
    1.3754   -0.7642    0.0000 N   0  0  0  0  0  0  0  0  0  0  0  0
    0.6609    0.4733    0.0000 C   0  0  0  0  0  0  0  0  0  0  0  0
   -0.1237    0.2184    0.0000 C   0  0  0  0  0  0  0  0  0  0  0  0
   -0.3786   -0.5662    0.0000 C   0  0  0  0  0  0  0  0  0  0  0  0
    0.1734   -1.1793    0.0000 C   0  0  0  0  0  0  0  0  0  0  0  0
   -1.1856   -0.7378    0.0000 C   0  0  0  0  0  0  0  0  0  0  0  0
   -1.4406   -1.5224    0.0000 C   0  0  0  0  0  0  0  0  0  0  0  0
   -0.8885   -2.1355    0.0000 C   0  0  0  0  0  0  0  0  0  0  0  0
   -1.1435   -2.9201    0.0000 O   0  0  0  0  0  0  0  0  0  0  0  0
   -0.5914   -3.5332    0.0000 C   0  0  0  0  0  0  0  0  0  0  0  0
   -0.0816   -1.9639    0.0000 C   0  0  0  0  0  0  0  0  0  0  0  0
    0.4705   -2.5770    0.0000 O   0  0  0  0  0  0  0  0  0  0  0  0
    0.2155   -3.3617    0.0000 C   0  0  0  0  0  0  0  0  0  0  0  0
  1  2  1  0  0  0  0
  1  4  1  0  0  0  0
  2  3  1  0  0  0  0
  3  4  1  0  0  0  0
  4  5  1  0  0  0  0
  5  6  1  0  0  0  0
  5  7  1  0  0  0  0
  6 14  2  0  0  0  0
  7  8  2  0  0  0  0
  7 13  1  0  0  0  0
  8  9  1  0  0  0  0
  9 10  2  0  0  0  0
 10 11  1  0  0  0  0
 11 12  1  0  0  0  0
 11 13  2  0  0  0  0
 13 14  1  0  0  0  0
 14 15  1  0  0  0  0
 15 16  2  0  0  0  0
 15 17  1  0  0  0  0
 16 22  1  0  0  0  0
 17 18  2  0  0  0  0
 18 19  1  0  0  0  0
 19 20  1  0  0  0  0
 19 22  2  0  0  0  0
 20 21  1  0  0  0  0
 22 23  1  0  0  0  0
 23 24  1  0  0  0  0
M  END
> <DRUGBANK_ID>
DB08053

> <DRUG_GROUPS>
experimental

> <GENERIC_NAME>
1-cyclobutyl-3-(3,4-dimethoxyphenyl)-1H-pyrazolo[3,4-d]pyrimidin-4-amine

> <CHEMICAL_FORMULA>
C17H19N5O2

> <MOLECULAR_WEIGHT>
325.3651

> <EXACT_MASS>
325.153874877

> <IUPAC_NAME>
1-cyclobutyl-3-(3,4-dimethoxyphenyl)-1H-pyrazolo[3,4-d]pyrimidin-4-amine

> <IUPAC_TRADITIONAL_NAME>
1-cyclobutyl-3-(3,4-dimethoxyphenyl)pyrazolo[3,4-d]pyrimidin-4-amine

> <INCHI_IDENTIFIER>
InChI=1S/C17H19N5O2/c1-23-12-7-6-10(8-13(12)24-2)15-14-16(18)19-9-20-17(14)22(21-15)11-4-3-5-11/h6-9,11H,3-5H2,1-2H3,(H2,18,19,20)

> <INCHI_KEY>
InChIKey=ITOYZJGFTNTKKR-UHFFFAOYSA-N

> <SMILES>
COC1=C(OC)C=C(C=C1)C1=NN(C2CCC2)C2=NC=NC(N)=C12

> <JCHEM_ACCEPTOR_COUNT>
6

> <JCHEM_DONOR_COUNT>
1

> <JCHEM_ACIDIC_PKA>
19.7

> <JCHEM_BASIC_PKA>
6.58

> <JCHEM_PHYSIOLOGICAL_CHARGE>
0

> <ALOGPS_LOGP>
2.73

> <JCHEM_LOGP>
2.26

> <ALOGPS_LOGS>
-3.3

> <JCHEM_POLARIZABILITY>
35.03

> <JCHEM_POLAR_SURFACE_AREA>
88.08

> <JCHEM_REFRACTIVITY>
102.42

> <JCHEM_ROTATABLE_BOND_COUNT>
4

> <ALOGPS_SOLUBILITY>
1.61e-01 g/l __ 

$$$$
