L0I
  Mrv0541 02241213502D          

 28 32  0  0  0  0            999 V2000
   -3.3887   -1.3194    0.0000 O   0  0  0  0  0  0  0  0  0  0  0  0
   -2.5818   -1.4909    0.0000 C   0  0  0  0  0  0  0  0  0  0  0  0
   -2.3268   -2.2756    0.0000 N   0  0  0  0  0  0  0  0  0  0  0  0
   -2.8789   -2.8887    0.0000 C   0  0  0  0  0  0  0  0  0  0  0  0
   -3.6635   -3.1436    0.0000 C   0  0  0  0  0  0  0  0  0  0  0  0
   -3.0504   -3.6956    0.0000 C   0  0  0  0  0  0  0  0  0  0  0  0
   -2.0297   -0.8778    0.0000 N   0  0  0  0  0  0  0  0  0  0  0  0
   -2.2847   -0.0932    0.0000 C   0  0  0  0  0  0  0  0  0  0  0  0
   -3.0693    0.1617    0.0000 C   0  0  0  0  0  0  0  0  0  0  0  0
   -3.0693    0.9867    0.0000 N   0  0  0  0  0  0  0  0  0  0  0  0
   -2.2847    1.2417    0.0000 N   0  0  0  0  0  0  0  0  0  0  0  0
   -1.7997    0.5742    0.0000 C   0  0  0  0  0  0  0  0  0  0  0  0
   -0.9747    0.5742    0.0000 C   0  0  0  0  0  0  0  0  0  0  0  0
   -0.4898   -0.0932    0.0000 N   0  0  0  0  0  0  0  0  0  0  0  0
    0.2948    0.1617    0.0000 C   0  0  0  0  0  0  0  0  0  0  0  0
    1.0093   -0.2508    0.0000 C   0  0  0  0  0  0  0  0  0  0  0  0
    1.7237    0.1617    0.0000 C   0  0  0  0  0  0  0  0  0  0  0  0
    1.7237    0.9867    0.0000 C   0  0  0  0  0  0  0  0  0  0  0  0
    2.4382    1.3992    0.0000 C   0  0  0  0  0  0  0  0  0  0  0  0
    3.1527    0.9867    0.0000 N   0  3  0  0  0  0  0  0  0  0  0  0
    3.8672    1.3992    0.0000 C   0  0  0  0  0  0  0  0  0  0  0  0
    4.5816    0.9867    0.0000 C   0  0  0  0  0  0  0  0  0  0  0  0
    4.5816    0.1617    0.0000 O   0  0  0  0  0  0  0  0  0  0  0  0
    3.8672   -0.2508    0.0000 C   0  0  0  0  0  0  0  0  0  0  0  0
    3.1527    0.1617    0.0000 C   0  0  0  0  0  0  0  0  0  0  0  0
    1.0093    1.3992    0.0000 C   0  0  0  0  0  0  0  0  0  0  0  0
    0.2948    0.9867    0.0000 C   0  0  0  0  0  0  0  0  0  0  0  0
   -0.4898    1.2417    0.0000 N   0  0  0  0  0  0  0  0  0  0  0  0
  2  1  2  0  0  0  0
  2  7  1  0  0  0  0
  3  2  1  0  0  0  0
  4  3  1  0  0  0  0
  5  4  1  0  0  0  0
  5  6  1  0  0  0  0
  6  4  1  0  0  0  0
  7  8  1  0  0  0  0
  8  9  2  0  0  0  0
  9 10  1  0  0  0  0
 11 10  1  0  0  0  0
 12  8  1  0  0  0  0
 12 11  2  0  0  0  0
 13 12  1  0  0  0  0
 13 28  1  0  0  0  0
 14 13  2  0  0  0  0
 15 14  1  0  0  0  0
 15 27  1  0  0  0  0
 16 15  2  0  0  0  0
 17 16  1  0  0  0  0
 17 18  2  0  0  0  0
 18 26  1  0  0  0  0
 19 18  1  0  0  0  0
 20 19  1  0  0  0  0
 20 21  1  0  0  0  0
 22 21  1  0  0  0  0
 23 22  1  0  0  0  0
 24 23  1  0  0  0  0
 24 25  1  0  0  0  0
 25 20  1  0  0  0  0
 26 27  2  0  0  0  0
 27 28  1  0  0  0  0
M  END
> <DRUGBANK_ID>
DB08067

> <DRUG_GROUPS>
experimental

> <GENERIC_NAME>
4-[(2-{4-[(CYCLOPROPYLCARBAMOYL)AMINO]-1H-PYRAZOL-3-YL}-1H-BENZIMIDAZOL-6-YL)METHYL]MORPHOLIN-4-IUM

> <CHEMICAL_FORMULA>
C19H24N7O2

> <MOLECULAR_WEIGHT>
382.4396

> <EXACT_MASS>
382.199148047

> <IUPAC_NAME>
4-[(2-{4-[(cyclopropylcarbamoyl)amino]-1H-pyrazol-3-yl}-1H-1,3-benzodiazol-6-yl)methyl]morpholin-4-ium

> <IUPAC_TRADITIONAL_NAME>
4-[(2-{4-[(cyclopropylcarbamoyl)amino]-1H-pyrazol-3-yl}-3H-1,3-benzodiazol-5-yl)methyl]morpholin-4-ium

> <INCHI_IDENTIFIER>
InChI=1S/C19H23N7O2/c27-19(21-13-2-3-13)24-16-10-20-25-17(16)18-22-14-4-1-12(9-15(14)23-18)11-26-5-7-28-8-6-26/h1,4,9-10,13H,2-3,5-8,11H2,(H,20,25)(H,22,23)(H2,21,24,27)/p+1

> <INCHI_KEY>
InChIKey=LOLPPWBBNUVNQZ-UHFFFAOYSA-O

> <SMILES>
O=C(NC1CC1)NC1=CNN=C1C1=NC2=CC=C(C[NH+]3CCOCC3)C=C2N1

> <JCHEM_ACCEPTOR_COUNT>
4

> <JCHEM_DONOR_COUNT>
5

> <JCHEM_ACIDIC_PKA>
9.82

> <JCHEM_BASIC_PKA>
6.91

> <JCHEM_PHYSIOLOGICAL_CHARGE>
0

> <ALOGPS_LOGP>
0.95

> <JCHEM_LOGP>
1.29

> <ALOGPS_LOGS>
-4.6

> <JCHEM_POLARIZABILITY>
41.54

> <JCHEM_POLAR_SURFACE_AREA>
112.16

> <JCHEM_REFRACTIVITY>
127.67

> <JCHEM_ROTATABLE_BOND_COUNT>
5

> <ALOGPS_SOLUBILITY>
1.11e-02 g/l __ 

$$$$
