SX8
  Mrv0541 02241214112D          

 26 30  0  0  0  0            999 V2000
   -2.7877    0.2308    0.0000 C   0  0  0  0  0  0  0  0  0  0  0  0
   -2.2356    0.8439    0.0000 C   0  0  0  0  0  0  0  0  0  0  0  0
    1.0864    2.1245    0.0000 C   0  0  0  0  0  0  0  0  0  0  0  0
    0.2794    1.9529    0.0000 N   0  0  0  0  0  0  0  0  0  0  0  0
   -1.4287    0.6724    0.0000 C   0  0  0  0  0  0  0  0  0  0  0  0
   -1.0482    2.0925    0.0000 C   0  0  0  0  0  0  0  0  0  0  0  0
   -0.8766    1.2855    0.0000 C   0  0  0  0  0  0  0  0  0  0  0  0
   -0.0561    1.1993    0.0000 C   0  0  0  0  0  0  0  0  0  0  0  0
   -0.3337    2.5050    0.0000 N   0  0  0  0  0  0  0  0  0  0  0  0
   -1.1737   -0.1122    0.0000 N   0  0  0  0  0  0  0  0  0  0  0  0
   -1.7258   -0.7253    0.0000 N   0  0  0  0  0  0  0  0  0  0  0  0
   -2.5327   -0.5538    0.0000 C   0  0  0  0  0  0  0  0  0  0  0  0
   -1.6395   -1.5458    0.0000 C   0  0  0  0  0  0  0  0  0  0  0  0
   -2.3932   -1.8813    0.0000 N   0  0  0  0  0  0  0  0  0  0  0  0
   -2.9452   -1.2683    0.0000 N   0  0  0  0  0  0  0  0  0  0  0  0
   -0.9250   -1.9583    0.0000 S   0  0  0  0  0  0  0  0  0  0  0  0
   -0.2106   -1.5458    0.0000 C   0  0  0  0  0  0  0  0  0  0  0  0
    0.5039   -1.9583    0.0000 C   0  0  0  0  0  0  0  0  0  0  0  0
    1.2184   -1.5458    0.0000 C   0  0  0  0  0  0  0  0  0  0  0  0
    1.2184   -0.7208    0.0000 C   0  0  0  0  0  0  0  0  0  0  0  0
    0.5039   -0.3083    0.0000 C   0  0  0  0  0  0  0  0  0  0  0  0
   -0.2106   -0.7208    0.0000 C   0  0  0  0  0  0  0  0  0  0  0  0
    1.9328   -1.9583    0.0000 C   0  0  0  0  0  0  0  0  0  0  0  0
    2.6473   -1.5458    0.0000 C   0  0  0  0  0  0  0  0  0  0  0  0
    2.6473   -0.7208    0.0000 C   0  0  0  0  0  0  0  0  0  0  0  0
    1.9328   -0.3083    0.0000 N   0  0  0  0  0  0  0  0  0  0  0  0
  1  2  2  0  0  0  0
  4  3  1  0  0  0  0
  5  2  1  0  0  0  0
  5  7  1  0  0  0  0
  6  7  1  0  0  0  0
  6  9  2  0  0  0  0
  7  8  2  0  0  0  0
  8  4  1  0  0  0  0
  9  4  1  0  0  0  0
 10  5  2  0  0  0  0
 11 10  1  0  0  0  0
 11 12  1  0  0  0  0
 12  1  1  0  0  0  0
 13 11  1  0  0  0  0
 14 13  2  0  0  0  0
 14 15  1  0  0  0  0
 15 12  2  0  0  0  0
 16 13  1  0  0  0  0
 16 17  1  0  0  0  0
 17 22  2  0  0  0  0
 17 18  1  0  0  0  0
 18 19  2  0  0  0  0
 19 20  1  0  0  0  0
 19 23  1  0  0  0  0
 20 26  1  0  0  0  0
 21 20  2  0  0  0  0
 22 21  1  0  0  0  0
 23 24  2  0  0  0  0
 24 25  1  0  0  0  0
 26 25  2  0  0  0  0
M  END
> <DRUGBANK_ID>
DB08584

> <DRUG_GROUPS>
experimental

> <GENERIC_NAME>
6-{[6-(1-methyl-1H-pyrazol-4-yl)[1,2,4]triazolo[4,3-b]pyridazin-3-yl]sulfanyl}quinoline

> <CHEMICAL_FORMULA>
C18H13N7S

> <MOLECULAR_WEIGHT>
359.408

> <EXACT_MASS>
359.095314141

> <IUPAC_NAME>
6-{[6-(1-methyl-1H-pyrazol-4-yl)-[1,2,4]triazolo[4,3-b]pyridazin-3-yl]sulfanyl}quinoline

> <IUPAC_TRADITIONAL_NAME>
6-{[6-(1-methylpyrazol-4-yl)-[1,2,4]triazolo[4,3-b]pyridazin-3-yl]sulfanyl}quinoline

> <INCHI_IDENTIFIER>
InChI=1S/C18H13N7S/c1-24-11-13(10-20-24)16-6-7-17-21-22-18(25(17)23-16)26-14-4-5-15-12(9-14)3-2-8-19-15/h2-11H,1H3

> <INCHI_KEY>
InChIKey=BCZUAADEACICHN-UHFFFAOYSA-N

> <SMILES>
CN1C=C(C=N1)C1=NN2C(SC3=CC=C4N=CC=CC4=C3)=NN=C2C=C1

> <JCHEM_ACCEPTOR_COUNT>
5

> <JCHEM_DONOR_COUNT>
0

> <JCHEM_BASIC_PKA>
4.26

> <JCHEM_PHYSIOLOGICAL_CHARGE>
0

> <ALOGPS_LOGP>
2.94

> <JCHEM_LOGP>
3.18

> <ALOGPS_LOGS>
-4.3

> <JCHEM_POLARIZABILITY>
36.59

> <JCHEM_POLAR_SURFACE_AREA>
73.79

> <JCHEM_REFRACTIVITY>
123.74

> <JCHEM_ROTATABLE_BOND_COUNT>
3

> <ALOGPS_SOLUBILITY>
1.77e-02 g/l __ 

$$$$
