TSO
  Mrv0541 02241214142D          

 19 20  0  0  0  0            999 V2000
    0.4410   -0.8032    0.0000 C   0  0  0  0  0  0  0  0  0  0  0  0
   -0.3551   -0.9782    0.0000 C   0  0  0  0  0  0  0  0  0  0  0  0
    0.0468   -0.4117    0.0000 C   0  0  1  0  0  0  0  0  0  0  0  0
    0.9464   -0.3711    0.0000 O   0  0  0  0  0  0  0  0  0  0  0  0
    0.5231    0.9429    0.0000 C   0  0  0  0  0  0  0  0  0  0  0  0
    1.1975    0.6149    0.0000 C   0  0  0  0  0  0  0  0  0  0  0  0
    1.4574    1.4199    0.0000 O   0  0  0  0  0  0  0  0  0  0  0  0
    2.0400    0.6335    0.0000 O   0  0  0  0  0  0  0  0  0  0  0  0
   -0.5410    0.1488    0.0000 C   0  0  0  0  0  0  0  0  0  0  0  0
   -1.0330   -0.2650    0.0000 C   0  0  2  0  0  0  0  0  0  0  0  0
   -0.9092    0.5170    0.0000 O   0  0  0  0  0  0  0  0  0  0  0  0
   -1.5360   -0.9696    0.0000 C   0  0  0  0  0  0  0  0  0  0  0  0
   -1.4206   -1.7930    0.0000 O   0  0  0  0  0  0  0  0  0  0  0  0
   -2.3533   -1.0157    0.0000 O   0  0  0  0  0  0  0  0  0  0  0  0
   -0.0130    0.5177    0.0000 C   0  0  1  0  0  0  0  0  0  0  0  0
    0.3952    0.1593    0.0000 C   0  0  1  0  0  0  0  0  0  0  0  0
    0.5771   -0.6194    0.0000 H   0  0  0  0  0  0  0  0  0  0  0  0
    0.2106    1.0413    0.0000 H   0  0  0  0  0  0  0  0  0  0  0  0
   -0.6148   -0.6515    0.0000 H   0  0  0  0  0  0  0  0  0  0  0  0
  1  2  2  0  0  0  0
  1 16  1  0  0  0  0
  2  3  1  0  0  0  0
  3  4  1  6  0  0  0
  3 15  1  0  0  0  0
  3 17  1  1  0  0  0
  5 15  1  0  0  0  0
  5 16  1  0  0  0  0
  6  7  1  0  0  0  0
  6  8  2  0  0  0  0
 16  6  1  6  0  0  0
  9 10  1  0  0  0  0
  9 16  1  0  0  0  0
 10 11  1  0  0  0  0
 10 12  1  1  0  0  0
 10 19  1  6  0  0  0
 11 15  1  0  0  0  0
 12 13  2  0  0  0  0
 12 14  1  0  0  0  0
 15 18  1  1  0  0  0
M  END
> <DRUGBANK_ID>
DB08650

> <DRUG_GROUPS>
experimental

> <GENERIC_NAME>
(1R,3S,5S,8R)-8-HYDROXY-2-OXABICYCLO[3.3.1]NON-6-ENE-3,5-DICARBOXYLIC ACID

> <CHEMICAL_FORMULA>
C10H12O6

> <MOLECULAR_WEIGHT>
228.1987

> <EXACT_MASS>
228.063388116

> <IUPAC_NAME>
(1R,3S,5S,8R)-8-hydroxy-2-oxabicyclo[3.3.1]non-6-ene-3,5-dicarboxylic acid

> <IUPAC_TRADITIONAL_NAME>
(1R,3S,5S,8R)-8-hydroxy-2-oxabicyclo[3.3.1]non-6-ene-3,5-dicarboxylic acid

> <INCHI_IDENTIFIER>
InChI=1S/C10H12O6/c11-5-1-2-10(9(14)15)3-6(5)16-7(4-10)8(12)13/h1-2,5-7,11H,3-4H2,(H,12,13)(H,14,15)/t5-,6-,7+,10+/m1/s1

> <INCHI_KEY>
InChIKey=KRZHNRULRHECRF-JQCUSGDOSA-N

> <SMILES>
[H][C@@]1(O)C=C[C@]2(C[C@]([H])(O[C@]1([H])C2)C(O)=O)C(O)=O

> <JCHEM_ACCEPTOR_COUNT>
6

> <JCHEM_DONOR_COUNT>
3

> <JCHEM_ACIDIC_PKA>
3.31

> <JCHEM_BASIC_PKA>
-3.3

> <JCHEM_PHYSIOLOGICAL_CHARGE>
-2

> <ALOGPS_LOGP>
-0.14

> <JCHEM_LOGP>
-0.36

> <ALOGPS_LOGS>
-0.47

> <JCHEM_POLARIZABILITY>
20.32

> <JCHEM_POLAR_SURFACE_AREA>
104.06

> <JCHEM_REFRACTIVITY>
51.19

> <JCHEM_ROTATABLE_BOND_COUNT>
2

> <ALOGPS_SOLUBILITY>
7.81e+01 g/l __ 

$$$$
