TUO
  Mrv0541 02241214142D          

 23 25  0  0  0  0            999 V2000
   -1.6783   -0.7986    0.0000 C   0  0  0  0  0  0  0  0  0  0  0  0
   -1.9333   -1.5833    0.0000 C   0  0  0  0  0  0  0  0  0  0  0  0
   -1.3812   -2.1964    0.0000 C   0  0  0  0  0  0  0  0  0  0  0  0
   -0.5743   -2.0248    0.0000 C   0  0  0  0  0  0  0  0  0  0  0  0
   -0.3193   -1.2402    0.0000 C   0  0  0  0  0  0  0  0  0  0  0  0
   -0.8714   -0.6271    0.0000 C   0  0  0  0  0  0  0  0  0  0  0  0
   -0.6164    0.1575    0.0000 C   0  0  0  0  0  0  0  0  0  0  0  0
    0.1682    0.4125    0.0000 C   0  0  0  0  0  0  0  0  0  0  0  0
    0.8827    0.0000    0.0000 C   0  0  0  0  0  0  0  0  0  0  0  0
    1.5971    0.4125    0.0000 C   0  0  0  0  0  0  0  0  0  0  0  0
    2.3116    0.0000    0.0000 S   0  0  0  0  0  0  0  0  0  0  0  0
    3.0261   -0.4125    0.0000 O   0  0  0  0  0  0  0  0  0  0  0  0
    1.8991   -0.7145    0.0000 O   0  0  0  0  0  0  0  0  0  0  0  0
    2.7241    0.7144    0.0000 N   0  0  0  0  0  0  0  0  0  0  0  0
    1.5971    1.2375    0.0000 C   0  0  0  0  0  0  0  0  0  0  0  0
    0.8827    1.6500    0.0000 C   0  0  0  0  0  0  0  0  0  0  0  0
    0.1682    1.2375    0.0000 C   0  0  0  0  0  0  0  0  0  0  0  0
   -0.6164    1.4924    0.0000 N   0  0  0  0  0  0  0  0  0  0  0  0
   -1.1013    0.8250    0.0000 C   0  0  0  0  0  0  0  0  0  0  0  0
   -1.9263    0.8250    0.0000 C   0  0  0  0  0  0  0  0  0  0  0  0
   -2.3388    1.5394    0.0000 O   0  0  0  0  0  0  0  0  0  0  0  0
   -2.3388    0.1105    0.0000 N   0  0  0  0  0  0  0  0  0  0  0  0
   -3.1638    0.1105    0.0000 N   0  0  0  0  0  0  0  0  0  0  0  0
  1  6  1  0  0  0  0
  2  1  2  0  0  0  0
  2  3  1  0  0  0  0
  3  4  2  0  0  0  0
  4  5  1  0  0  0  0
  6  5  2  0  0  0  0
  6  7  1  0  0  0  0
  7  8  1  0  0  0  0
  8 17  2  0  0  0  0
  8  9  1  0  0  0  0
  9 10  2  0  0  0  0
 10 15  1  0  0  0  0
 10 11  1  0  0  0  0
 11 12  2  0  0  0  0
 13 11  2  0  0  0  0
 14 11  1  0  0  0  0
 16 15  2  0  0  0  0
 17 16  1  0  0  0  0
 18 17  1  0  0  0  0
 19  7  2  0  0  0  0
 19 18  1  0  0  0  0
 20 19  1  0  0  0  0
 20 21  2  0  0  0  0
 22 20  1  0  0  0  0
 23 22  1  0  0  0  0
M  END
> <DRUGBANK_ID>
DB08659

> <DRUG_GROUPS>
experimental

> <GENERIC_NAME>
2-(hydrazinocarbonyl)-3-phenyl-1H-indole-5-sulfonamide

> <CHEMICAL_FORMULA>
C15H14N4O3S

> <MOLECULAR_WEIGHT>
330.362

> <EXACT_MASS>
330.078661024

> <IUPAC_NAME>
2-(hydrazinecarbonyl)-3-phenyl-1H-indole-5-sulfonamide

> <IUPAC_TRADITIONAL_NAME>
2-(hydrazinecarbonyl)-3-phenyl-1H-indole-5-sulfonamide

> <INCHI_IDENTIFIER>
InChI=1S/C15H14N4O3S/c16-19-15(20)14-13(9-4-2-1-3-5-9)11-8-10(23(17,21)22)6-7-12(11)18-14/h1-8,18H,16H2,(H,19,20)(H2,17,21,22)

> <INCHI_KEY>
InChIKey=PPDLAUCFAOODER-UHFFFAOYSA-N

> <SMILES>
NNC(=O)C1=C(C2=C(N1)C=CC(=C2)S(N)(=O)=O)C1=CC=CC=C1

> <JCHEM_ACCEPTOR_COUNT>
4

> <JCHEM_DONOR_COUNT>
4

> <JCHEM_ACIDIC_PKA>
10.09

> <JCHEM_BASIC_PKA>
2.87

> <JCHEM_PHYSIOLOGICAL_CHARGE>
0

> <ALOGPS_LOGP>
1.48

> <JCHEM_LOGP>
0.8

> <ALOGPS_LOGS>
-3.8

> <JCHEM_POLARIZABILITY>
33.21

> <JCHEM_POLAR_SURFACE_AREA>
131.07

> <JCHEM_REFRACTIVITY>
87.88

> <JCHEM_ROTATABLE_BOND_COUNT>
3

> <ALOGPS_SOLUBILITY>
4.87e-02 g/l __ 

$$$$
