S10
  Mrv0541 02241214082D          

 15 14  0  0  0  0            999 V2000
   -2.1433   -0.8562    0.0000 O   0  0  0  0  0  0  0  0  0  0  0  0
   -2.1433   -0.0312    0.0000 C   0  0  0  0  0  0  0  0  0  0  0  0
   -2.8578    0.3813    0.0000 O   0  0  0  0  0  0  0  0  0  0  0  0
   -3.5723   -0.0312    0.0000 C   0  0  0  0  0  0  0  0  0  0  0  0
   -4.2866    0.3813    0.0000 C   0  0  0  0  0  0  0  0  0  0  0  0
   -1.4288    0.3813    0.0000 N   0  0  0  0  0  0  0  0  0  0  0  0
   -0.7145   -0.0312    0.0000 C   0  0  0  0  0  0  0  0  0  0  0  0
    0.0000    0.3813    0.0000 C   0  0  0  0  0  0  0  0  0  0  0  0
    0.7145   -0.0312    0.0000 C   0  0  0  0  0  0  0  0  0  0  0  0
    1.4288    0.3813    0.0000 N   0  0  0  0  0  0  0  0  0  0  0  0
    2.1433   -0.0312    0.0000 C   0  0  0  0  0  0  0  0  0  0  0  0
    2.1433   -0.8562    0.0000 O   0  0  0  0  0  0  0  0  0  0  0  0
    2.8578    0.3813    0.0000 O   0  0  0  0  0  0  0  0  0  0  0  0
    3.5723   -0.0312    0.0000 C   0  0  0  0  0  0  0  0  0  0  0  0
    4.2866    0.3813    0.0000 C   0  0  0  0  0  0  0  0  0  0  0  0
  1  2  2  0  0  0  0
  2  3  1  0  0  0  0
  2  6  1  0  0  0  0
  3  4  1  0  0  0  0
  4  5  1  0  0  0  0
  6  7  1  0  0  0  0
  7  8  1  0  0  0  0
  8  9  1  0  0  0  0
  9 10  1  0  0  0  0
 10 11  1  0  0  0  0
 11 12  2  0  0  0  0
 11 13  1  0  0  0  0
 13 14  1  0  0  0  0
 14 15  1  0  0  0  0
M  END
> <DRUGBANK_ID>
DB08501

> <DRUG_GROUPS>
experimental

> <GENERIC_NAME>
DIETHYL PROPANE-1,3-DIYLBISCARBAMATE

> <CHEMICAL_FORMULA>
C9H18N2O4

> <MOLECULAR_WEIGHT>
218.2502

> <EXACT_MASS>
218.126657074

> <IUPAC_NAME>
ethyl N-{3-[(ethoxycarbonyl)amino]propyl}carbamate

> <IUPAC_TRADITIONAL_NAME>
ethyl N-{3-[(ethoxycarbonyl)amino]propyl}carbamate

> <INCHI_IDENTIFIER>
InChI=1S/C9H18N2O4/c1-3-14-8(12)10-6-5-7-11-9(13)15-4-2/h3-7H2,1-2H3,(H,10,12)(H,11,13)

> <INCHI_KEY>
InChIKey=BWWHOVJFNMPUKF-UHFFFAOYSA-N

> <SMILES>
CCOC(=O)NCCCNC(=O)OCC

> <JCHEM_ACCEPTOR_COUNT>
2

> <JCHEM_DONOR_COUNT>
2

> <JCHEM_ACIDIC_PKA>
15.33

> <JCHEM_PHYSIOLOGICAL_CHARGE>
0

> <ALOGPS_LOGP>
0.34

> <JCHEM_LOGP>
0.23

> <ALOGPS_LOGS>
-1.7

> <JCHEM_POLARIZABILITY>
23.25

> <JCHEM_POLAR_SURFACE_AREA>
76.66

> <JCHEM_REFRACTIVITY>
54.37

> <JCHEM_ROTATABLE_BOND_COUNT>
8

> <ALOGPS_SOLUBILITY>
3.99e+00 g/l __ 

$$$$
