ZST
  Mrv0541 02241214182D          

 29 32  0  0  0  0            999 V2000
   -1.9032    0.4637    0.0000 C   0  0  0  0  0  0  0  0  0  0  0  0
   -2.3157    1.1781    0.0000 O   0  0  0  0  0  0  0  0  0  0  0  0
   -2.3157   -0.2508    0.0000 C   0  0  0  0  0  0  0  0  0  0  0  0
   -1.9032   -0.9653    0.0000 C   0  0  0  0  0  0  0  0  0  0  0  0
   -1.0782   -0.9653    0.0000 C   0  0  0  0  0  0  0  0  0  0  0  0
   -3.1407   -0.2508    0.0000 C   0  0  0  0  0  0  0  0  0  0  0  0
   -3.5532   -0.9653    0.0000 C   0  0  0  0  0  0  0  0  0  0  0  0
   -3.1407   -1.6798    0.0000 C   0  0  0  0  0  0  0  0  0  0  0  0
   -2.3157   -1.6798    0.0000 C   0  0  0  0  0  0  0  0  0  0  0  0
   -1.0782    0.4637    0.0000 N   0  0  0  0  0  0  0  0  0  0  0  0
   -0.6657   -0.2508    0.0000 N   0  0  0  0  0  0  0  0  0  0  0  0
   -0.6657    1.1781    0.0000 C   0  0  0  0  0  0  0  0  0  0  0  0
    0.1593    1.1781    0.0000 C   0  0  0  0  0  0  0  0  0  0  0  0
    1.4288    0.7656    0.0000 C   0  0  0  0  0  0  0  0  0  0  0  0
    1.4288    1.5906    0.0000 C   0  0  0  0  0  0  0  0  0  0  0  0
    2.1433    0.3531    0.0000 C   0  0  0  0  0  0  0  0  0  0  0  0
    2.8578    0.7656    0.0000 C   0  0  0  0  0  0  0  0  0  0  0  0
    2.8578    1.5906    0.0000 C   0  0  0  0  0  0  0  0  0  0  0  0
    2.1433    2.0031    0.0000 C   0  0  0  0  0  0  0  0  0  0  0  0
    0.6442    1.8456    0.0000 N   0  0  0  0  0  0  0  0  0  0  0  0
    0.6442    0.5107    0.0000 S   0  0  0  0  0  0  0  0  0  0  0  0
   -0.6657   -1.6798    0.0000 C   0  0  0  0  0  0  0  0  0  0  0  0
    0.1593   -1.6798    0.0000 C   0  0  0  0  0  0  0  0  0  0  0  0
    0.5718   -0.9653    0.0000 O   0  0  0  0  0  0  0  0  0  0  0  0
    0.5718   -2.3942    0.0000 O   0  0  0  0  0  0  0  0  0  0  0  0
    3.5722    2.0031    0.0000 C   0  0  0  0  0  0  0  0  0  0  0  0
    4.2867    2.4156    0.0000 F   0  0  0  0  0  0  0  0  0  0  0  0
    3.9847    1.2887    0.0000 F   0  0  0  0  0  0  0  0  0  0  0  0
    3.1597    2.7176    0.0000 F   0  0  0  0  0  0  0  0  0  0  0  0
  1  2  2  0  0  0  0
  1  3  1  0  0  0  0
  1 10  1  0  0  0  0
  3  4  2  0  0  0  0
  3  6  1  0  0  0  0
  4  5  1  0  0  0  0
  4  9  1  0  0  0  0
  5 11  2  0  0  0  0
  5 22  1  0  0  0  0
  6  7  2  0  0  0  0
  7  8  1  0  0  0  0
  8  9  2  0  0  0  0
 10 11  1  0  0  0  0
 10 12  1  0  0  0  0
 12 13  1  0  0  0  0
 13 20  2  0  0  0  0
 13 21  1  0  0  0  0
 14 15  2  0  0  0  0
 14 16  1  0  0  0  0
 14 21  1  0  0  0  0
 15 19  1  0  0  0  0
 15 20  1  0  0  0  0
 16 17  2  0  0  0  0
 17 18  1  0  0  0  0
 18 19  2  0  0  0  0
 18 26  1  0  0  0  0
 22 23  1  0  0  0  0
 23 24  2  0  0  0  0
 23 25  1  0  0  0  0
 26 27  1  0  0  0  0
 26 28  1  0  0  0  0
 26 29  1  0  0  0  0
M  END
> <DRUGBANK_ID>
DB08772

> <DRUG_GROUPS>
experimental

> <GENERIC_NAME>
3,4-DIHYDRO-4-OXO-3-((5-TRIFLUOROMETHYL-2-BENZOTHIAZOLYL)METHYL)-1-PHTHALAZINE ACETIC ACID

> <CHEMICAL_FORMULA>
C19H12F3N3O3S

> <MOLECULAR_WEIGHT>
419.377

> <EXACT_MASS>
419.05514657

> <IUPAC_NAME>
2-(4-oxo-3-{[5-(trifluoromethyl)-1,3-benzothiazol-2-yl]methyl}-3,4-dihydrophthalazin-1-yl)acetic acid

> <IUPAC_TRADITIONAL_NAME>
zopolrestat

> <INCHI_IDENTIFIER>
InChI=1S/C19H12F3N3O3S/c20-19(21,22)10-5-6-15-14(7-10)23-16(29-15)9-25-18(28)12-4-2-1-3-11(12)13(24-25)8-17(26)27/h1-7H,8-9H2,(H,26,27)

> <INCHI_KEY>
InChIKey=BCSVCWVQNOXFGL-UHFFFAOYSA-N

> <SMILES>
OC(=O)CC1=NN(CC2=NC3=C(S2)C=CC(=C3)C(F)(F)F)C(=O)C2=C1C=CC=C2

> <JCHEM_ACCEPTOR_COUNT>
5

> <JCHEM_DONOR_COUNT>
1

> <JCHEM_ACIDIC_PKA>
3.97

> <JCHEM_BASIC_PKA>
2.31

> <JCHEM_PHYSIOLOGICAL_CHARGE>
-1

> <ALOGPS_LOGP>
3.21

> <JCHEM_LOGP>
3.63

> <ALOGPS_LOGS>
-5.5

> <JCHEM_POLARIZABILITY>
37.59

> <JCHEM_POLAR_SURFACE_AREA>
82.86

> <JCHEM_REFRACTIVITY>
98.22

> <JCHEM_ROTATABLE_BOND_COUNT>
5

> <ALOGPS_SOLUBILITY>
1.17e-03 g/l __ 

$$$$
