
  Mrv0541 12311310462D          

 21 23  0  0  0  0            999 V2000
   -2.5892   -0.8044    0.0000 C    0  0  0  0  0  0  0  0  0  0  0  0
   -3.3037   -1.2169    0.0000 C    0  0  0  0  0  0  0  0  0  0  0  0
   -3.3037   -2.0419    0.0000 C    0  0  0  0  0  0  0  0  0  0  0  0
   -2.5892   -2.4544    0.0000 C    0  0  0  0  0  0  0  0  0  0  0  0
   -1.8748   -2.0419    0.0000 C    0  0  0  0  0  0  0  0  0  0  0  0
   -4.0182   -2.4544    0.0000 Cl   0  0  0  0  0  0  0  0  0  0  0  0
   -1.1603   -2.4544    0.0000 Cl   0  0  0  0  0  0  0  0  0  0  0  0
   -0.7478    0.4650    0.0000 S    0  0  0  0  0  0  0  0  0  0  0  0
   -1.4152   -0.0198    0.0000 C    0  0  0  0  0  0  0  0  0  0  0  0
   -0.3353   -0.8044    0.0000 S    0  0  0  0  0  0  0  0  0  0  0  0
   -0.0804   -0.0198    0.0000 C    0  0  0  0  0  0  0  0  0  0  0  0
   -1.8748   -1.2169    0.0000 C    0  0  0  0  0  0  0  0  0  0  0  0
   -1.1603   -0.8044    0.0000 C    0  0  0  0  0  0  0  0  0  0  0  0
    0.7042    0.2350    0.0000 C    0  0  0  0  0  0  0  0  0  0  0  0
    0.6971    1.0643    0.0000 N    0  0  0  0  0  0  0  0  0  0  0  0
   -0.0172    1.4768    0.0000 C    0  0  0  0  0  0  0  0  0  0  0  0
   -0.0172    2.3018    0.0000 C    0  0  0  0  0  0  0  0  0  0  0  0
    1.4116    2.3018    0.0000 N    0  0  0  0  0  0  0  0  0  0  0  0
    1.4116    1.4768    0.0000 C    0  0  0  0  0  0  0  0  0  0  0  0
    1.3736   -0.2470    0.0000 C    0  0  0  0  0  0  0  0  0  0  0  0
    2.0275   -0.2643    0.0000 N    0  0  0  0  0  0  0  0  0  0  0  0
  1  2  1  0  0  0  0
  2  3  2  0  0  0  0
  3  4  1  0  0  0  0
  4  5  2  0  0  0  0
  3  6  1  0  0  0  0
  5  7  1  0  0  0  0
  8  9  1  0  0  0  0
  8 11  1  0  0  0  0
 10 11  1  0  0  0  0
  1 12  2  0  0  0  0
  5 12  1  0  0  0  0
  9 13  1  0  0  0  0
 13 10  1  0  0  0  0
 12 13  1  6  0  0  0
 11 14  2  0  0  0  0
 14 15  1  0  0  0  0
 16 17  2  0  0  0  0
 17 18  1  0  0  0  0
 18 19  2  0  0  0  0
 15 16  1  0  0  0  0
 15 19  1  0  0  0  0
 14 20  1  0  0  0  0
 20 21  3  0  0  0  0
M  END
> <DRUGBANK_ID>
DB08933

> <DRUG_GROUPS>
approved

> <GENERIC_NAME>
LULICONAZOLE

> <SYNONYMS>
NND-502

> <BRANDS>
Lulicon; LUZU

> <CHEMICAL_FORMULA>
C14H9Cl2N3S2

> <MOLECULAR_WEIGHT>
354.277

> <EXACT_MASS>
352.961494097

> <IUPAC_NAME>
2-[(2E)-4-(2,4-dichlorophenyl)-1,3-dithiolan-2-ylidene]-2-(1H-imidazol-1-yl)acetonitrile

> <IUPAC_TRADITIONAL_NAME>
2-[(2E)-4-(2,4-dichlorophenyl)-1,3-dithiolan-2-ylidene]-2-(imidazol-1-yl)acetonitrile

> <INCHI_IDENTIFIER>
InChI=1/C14H9Cl2N3S2/c15-9-1-2-10(11(16)5-9)13-7-20-14(21-13)12(6-17)19-4-3-18-8-19/h1-5,8,13H,7H2/b14-12+

> <INCHI_KEY>
InChIKey=YTAOBBFIOAEMLL-WYMLVPIENA-N

> <SMILES>
ClC1=CC=C(C2CS\C(S2)=C(\C#N)N2C=CN=C2)C(Cl)=C1

> <JCHEM_ACCEPTOR_COUNT>
2

> <JCHEM_DONOR_COUNT>
0

> <JCHEM_BASIC_PKA>
6.34

> <JCHEM_PHYSIOLOGICAL_CHARGE>
0

> <ALOGPS_LOGP>
4.27

> <JCHEM_LOGP>
4.07

> <ALOGPS_LOGS>
-3.7

> <JCHEM_POLARIZABILITY>
34.27

> <JCHEM_POLAR_SURFACE_AREA>
41.61

> <JCHEM_REFRACTIVITY>
101

> <JCHEM_ROTATABLE_BOND_COUNT>
2

> <ALOGPS_SOLUBILITY>
6.59e-02 g/l __ 

$$$$
