VXR
  Mrv0541 02241214162D          

 29 32  0  0  0  0            999 V2000
   -0.5715    1.9693    0.0000 C   0  0  0  0  0  0  0  0  0  0  0  0
    0.0960    1.4843    0.0000 C   0  0  0  0  0  0  0  0  0  0  0  0
   -0.1590    0.6997    0.0000 C   0  0  0  0  0  0  0  0  0  0  0  0
   -0.9840    0.6997    0.0000 C   0  0  0  0  0  0  0  0  0  0  0  0
   -1.2389    1.4843    0.0000 O   0  0  0  0  0  0  0  0  0  0  0  0
   -0.5715    2.7943    0.0000 C   0  0  0  0  0  0  0  0  0  0  0  0
    0.1430    3.2068    0.0000 C   0  0  0  0  0  0  0  0  0  0  0  0
   -1.4689    0.0323    0.0000 C   0  0  0  0  0  0  0  0  0  0  0  0
   -1.1333   -0.7214    0.0000 C   0  0  0  0  0  0  0  0  0  0  0  0
   -0.3264   -0.8929    0.0000 S   0  0  0  0  0  0  0  0  0  0  0  0
   -0.2401   -1.7134    0.0000 C   0  0  0  0  0  0  0  0  0  0  0  0
   -0.9938   -2.0490    0.0000 N   0  0  0  0  0  0  0  0  0  0  0  0
   -1.5458   -1.4359    0.0000 C   0  0  0  0  0  0  0  0  0  0  0  0
    0.4743   -2.1259    0.0000 N   0  0  0  0  0  0  0  0  0  0  0  0
    0.4743   -2.9509    0.0000 C   0  0  1  0  0  0  0  0  0  0  0  0
    1.1888   -3.3634    0.0000 C   0  0  0  0  0  0  0  0  0  0  0  0
   -0.2401   -3.3634    0.0000 C   0  0  0  0  0  0  0  0  0  0  0  0
   -0.9938   -3.0278    0.0000 N   0  0  0  0  0  0  0  0  0  0  0  0
   -1.5458   -3.6409    0.0000 N   0  0  0  0  0  0  0  0  0  0  0  0
   -1.1333   -4.3554    0.0000 N   0  0  0  0  0  0  0  0  0  0  0  0
   -0.3264   -4.1839    0.0000 N   0  0  0  0  0  0  0  0  0  0  0  0
    1.1888   -4.1884    0.0000 C   0  0  0  0  0  0  0  0  0  0  0  0
    1.9033   -4.6009    0.0000 C   0  0  0  0  0  0  0  0  0  0  0  0
    2.6177   -4.1884    0.0000 C   0  0  0  0  0  0  0  0  0  0  0  0
    2.6177   -3.3634    0.0000 C   0  0  0  0  0  0  0  0  0  0  0  0
    1.9033   -2.9509    0.0000 C   0  0  0  0  0  0  0  0  0  0  0  0
    3.3322   -4.6009    0.0000 F   0  0  0  0  0  0  0  0  0  0  0  0
   -2.3663   -1.5221    0.0000 O   0  0  0  0  0  0  0  0  0  0  0  0
   -0.0314   -2.6589    0.0000 H   0  0  0  0  0  0  0  0  0  0  0  0
  1  2  2  0  0  0  0
  1  5  1  0  0  0  0
  1  6  1  0  0  0  0
  2  3  1  0  0  0  0
  3  4  2  0  0  0  0
  4  8  1  0  0  0  0
  4  5  1  0  0  0  0
  6  7  1  0  0  0  0
  8  9  2  0  0  0  0
  9 10  1  0  0  0  0
  9 13  1  0  0  0  0
 10 11  1  0  0  0  0
 11 14  1  0  0  0  0
 11 12  2  0  0  0  0
 12 13  1  0  0  0  0
 13 28  2  0  0  0  0
 15 14  1  1  0  0  0
 15 17  1  0  0  0  0
 15 16  1  0  0  0  0
 15 29  1  6  0  0  0
 16 26  2  0  0  0  0
 16 22  1  0  0  0  0
 17 21  2  0  0  0  0
 17 18  1  0  0  0  0
 18 19  1  0  0  0  0
 19 20  2  0  0  0  0
 20 21  1  0  0  0  0
 22 23  2  0  0  0  0
 23 24  1  0  0  0  0
 24 25  2  0  0  0  0
 24 27  1  0  0  0  0
 25 26  1  0  0  0  0
M  END
> <DRUGBANK_ID>
DB08710

> <DRUG_GROUPS>
experimental

> <GENERIC_NAME>
(5Z)-5-[(5-ETHYL-2-FURYL)METHYLENE]-2-{[(S)-(4-FLUOROPHENYL)(1H-TETRAZOL-5-YL)METHYL]AMINO}-1,3-THIAZOL-4(5H)-ONE

> <CHEMICAL_FORMULA>
C18H15FN6O2S

> <MOLECULAR_WEIGHT>
398.414

> <EXACT_MASS>
398.096122649

> <IUPAC_NAME>
(5Z)-5-[(5-ethylfuran-2-yl)methylidene]-2-{[(S)-(4-fluorophenyl)(1H-1,2,3,4-tetrazol-5-yl)methyl]amino}-4,5-dihydro-1,3-thiazol-4-one

> <IUPAC_TRADITIONAL_NAME>
(5Z)-5-[(5-ethylfuran-2-yl)methylidene]-2-{[(S)-(4-fluorophenyl)(1H-1,2,3,4-tetrazol-5-yl)methyl]amino}-1,3-thiazol-4-one

> <INCHI_IDENTIFIER>
InChI=1S/C18H15FN6O2S/c1-2-12-7-8-13(27-12)9-14-17(26)21-18(28-14)20-15(16-22-24-25-23-16)10-3-5-11(19)6-4-10/h3-9,15H,2H2,1H3,(H,20,21,26)(H,22,23,24,25)/b14-9-/t15-/m0/s1

> <INCHI_KEY>
InChIKey=BKZOQCGDCHOGOQ-MZLJFPOFSA-N

> <SMILES>
[H][C@@](NC1=NC(=O)\C(S1)=C\C1=CC=C(CC)O1)(C1=NN=NN1)C1=CC=C(F)C=C1

> <JCHEM_ACCEPTOR_COUNT>
6

> <JCHEM_DONOR_COUNT>
2

> <JCHEM_ACIDIC_PKA>
3.94

> <JCHEM_BASIC_PKA>
-0.63

> <JCHEM_PHYSIOLOGICAL_CHARGE>
-1

> <ALOGPS_LOGP>
2.56

> <JCHEM_LOGP>
2.66

> <ALOGPS_LOGS>
-3.5

> <JCHEM_POLARIZABILITY>
38.64

> <JCHEM_POLAR_SURFACE_AREA>
109.06

> <JCHEM_REFRACTIVITY>
105.81

> <JCHEM_ROTATABLE_BOND_COUNT>
5

> <ALOGPS_SOLUBILITY>
1.14e-01 g/l __ 

$$$$
