 
  Mrv0541 08291315522D          
 
 38 41  0  0  0  0            999 V2000
    7.1946  -12.1723    0.0000 C    0  0  0  0  0  0  0  0  0  0  0  0
    7.1946  -13.0089    0.0000 C    0  0  0  0  0  0  0  0  0  0  0  0
    7.9475  -13.4272    0.0000 C    0  0  0  0  0  0  0  0  0  0  0  0
    8.6586  -13.0089    0.0000 C    0  0  0  0  0  0  0  0  0  0  0  0
    8.6586  -12.1723    0.0000 C    0  0  0  0  0  0  0  0  0  0  0  0
    7.9475  -11.7540    0.0000 C    0  0  0  0  0  0  0  0  0  0  0  0
    9.3697  -13.4272    0.0000 S    0  0  0  0  0  0  0  0  0  0  0  0
   10.1227  -13.0089    0.0000 C    0  0  0  0  0  0  0  0  0  0  0  0
   10.1227  -12.1723    0.0000 C    0  0  0  0  0  0  0  0  0  0  0  0
    9.3697  -11.7540    0.0000 C    0  0  0  0  0  0  0  0  0  0  0  0
   10.8338  -13.4272    0.0000 C    0  0  0  0  0  0  0  0  0  0  0  0
   11.5448  -13.0089    0.0000 C    0  0  0  0  0  0  0  0  0  0  0  0
   11.5448  -12.1723    0.0000 C    0  0  0  0  0  0  0  0  0  0  0  0
   10.8338  -11.7540    0.0000 C    0  0  0  0  0  0  0  0  0  0  0  0
    9.3697  -10.9174    0.0000 C    0  0  0  0  0  0  0  0  0  0  0  0
   10.1227  -10.4991    0.0000 C    0  0  0  0  0  0  0  0  0  0  0  0
   10.1227   -9.6625    0.0000 C    0  0  0  0  0  0  0  0  0  0  0  0
   10.8338   -9.2442    0.0000 N    0  0  0  0  0  0  0  0  0  0  0  0
   11.5448   -9.6625    0.0000 C    0  0  0  0  0  0  0  0  0  0  0  0
   12.2559   -9.2442    0.0000 C    0  0  0  0  0  0  0  0  0  0  0  0
   12.2559   -8.4077    0.0000 N    0  0  0  0  0  0  0  0  0  0  0  0
   11.5448   -7.9894    0.0000 C    0  0  0  0  0  0  0  0  0  0  0  0
   10.8338   -8.4077    0.0000 C    0  0  0  0  0  0  0  0  0  0  0  0
   13.0089   -7.9894    0.0000 C    0  0  0  0  0  0  0  0  0  0  0  0
   13.7200   -8.4077    0.0000 C    0  0  0  0  0  0  0  0  0  0  0  0
   14.4311   -7.9894    0.0000 O    0  0  0  0  0  0  0  0  0  0  0  0
   12.2978  -11.7540    0.0000 Cl   0  0  0  0  0  0  0  0  0  0  0  0
   15.1840   -8.4077    0.0000 C    0  0  0  0  0  0  0  0  0  0  0  0
   15.8533   -7.9894    0.0000 C    0  0  0  0  0  0  0  0  0  0  0  0
   15.1840   -9.2442    0.0000 O    0  0  0  0  0  0  0  0  0  0  0  0
   16.5643   -8.4077    0.0000 C    0  0  0  0  0  0  0  0  0  0  0  0
   17.3173   -7.9894    0.0000 C    0  0  0  0  0  0  0  0  0  0  0  0
   18.0284   -8.4077    0.0000 C    0  0  0  0  0  0  0  0  0  0  0  0
   18.7395   -7.9894    0.0000 C    0  0  0  0  0  0  0  0  0  0  0  0
   19.4924   -8.4077    0.0000 C    0  0  0  0  0  0  0  0  0  0  0  0
   20.2035   -7.9894    0.0000 C    0  0  0  0  0  0  0  0  0  0  0  0
   20.9146   -8.4077    0.0000 C    0  0  0  0  0  0  0  0  0  0  0  0
   21.6675   -7.9894    0.0000 C    0  0  0  0  0  0  0  0  0  0  0  0
  1  2  1  0  0  0  0
  2  3  2  0  0  0  0
  3  4  1  0  0  0  0
  4  5  2  0  0  0  0
  5  6  1  0  0  0  0
  1  6  2  0  0  0  0
  4  7  1  0  0  0  0
  7  8  1  0  0  0  0
  8  9  2  0  0  0  0
  9 10  1  0  0  0  0
  5 10  1  0  0  0  0
  8 11  1  0  0  0  0
 11 12  2  0  0  0  0
 12 13  1  0  0  0  0
 13 14  2  0  0  0  0
  9 14  1  0  0  0  0
 10 15  2  0  0  0  0
 15 16  1  0  0  0  0
 16 17  1  0  0  0  0
 17 18  1  0  0  0  0
 18 19  1  0  0  0  0
 19 20  1  0  0  0  0
 20 21  1  0  0  0  0
 21 22  1  0  0  0  0
 22 23  1  0  0  0  0
 18 23  1  0  0  0  0
 21 24  1  0  0  0  0
 24 25  1  0  0  0  0
 25 26  1  0  0  0  0
 13 27  1  0  0  0  0
 26 28  1  0  0  0  0
 28 29  1  0  0  0  0
 28 30  2  0  0  0  0
 29 31  1  0  0  0  0
 31 32  1  0  0  0  0
 32 33  1  0  0  0  0
 33 34  1  0  0  0  0
 34 35  1  0  0  0  0
 35 36  1  0  0  0  0
 36 37  1  0  0  0  0
 37 38  1  0  0  0  0
M  END
> <DRUGBANK_ID>
DB08920

> <DRUG_GROUPS>
experimental; investigational

> <GENERIC_NAME>
Zuclopenthixol decanoate

> <SYNONYMS>
cis(Z)-4-[3-(2-chlorothioxanthen-9-ylidene)propyl]-1- piperazineethanol decanoate; Clopixol Depot; Decanoic acid, 2-(4-(3-(2-chloro-9H-thioxanthen-9-ylidene)propyl)-1-piperazinyl)ethyl ester, (Z)-; UNII-TSS9KIZ5O; Zuclopenthixol; Zuclopenthixol; Zuclopenthixoldecanoat; Zuclopenthixoli decanoas; Zuclopenthixolum; Zuclopentixol

> <BRANDS>
Ciatyl-z Depot; Cisordinol Depot; CLOPIXOLÂ® DEPOT

> <CHEMICAL_FORMULA>
C32H43ClN2O2S

> <MOLECULAR_WEIGHT>
555.214

> <EXACT_MASS>
554.273377027

> <IUPAC_NAME>
2-(4-{3-[(9Z)-2-chloro-9H-thioxanthen-9-ylidene]propyl}piperazin-1-yl)ethyl decanoate

> <IUPAC_TRADITIONAL_NAME>
2-(4-{3-[(9Z)-2-chlorothioxanthen-9-ylidene]propyl}piperazin-1-yl)ethyl decanoate

> <INCHI_IDENTIFIER>
InChI=1S/C32H43ClN2O2S/c1-2-3-4-5-6-7-8-15-32(36)37-24-23-35-21-19-34(20-22-35)18-11-13-27-28-12-9-10-14-30(28)38-31-17-16-26(33)25-29(27)31/h9-10,12-14,16-17,25H,2-8,11,15,18-24H2,1H3/b27-13-

> <INCHI_KEY>
InChIKey=QRUAPADZILXULG-WKIKZPBSSA-N

> <SMILES>
CCCCCCCCCC(=O)OCCN1CCN(CC\C=C2\C3=C(SC4=C2C=C(Cl)C=C4)C=CC=C3)CC1

> <JCHEM_ACCEPTOR_COUNT>
3

> <JCHEM_DONOR_COUNT>
0

> <JCHEM_BASIC_PKA>
8.24

> <JCHEM_PHYSIOLOGICAL_CHARGE>
1

> <ALOGPS_LOGP>
7.46

> <JCHEM_LOGP>
8.48

> <ALOGPS_LOGS>
-7.2

> <JCHEM_POLARIZABILITY>
66.31

> <JCHEM_POLAR_SURFACE_AREA>
32.78

> <JCHEM_REFRACTIVITY>
172.99

> <JCHEM_ROTATABLE_BOND_COUNT>
15

> <ALOGPS_SOLUBILITY>
3.41e-05 g/l __ 

$$$$
