SYR
  Mrv0541 02241214112D          

 15 15  0  0  0  0            999 V2000
    1.9783    0.3279    0.0000 O   0  0  0  0  0  0  0  0  0  0  0  0
    1.2639    0.7404    0.0000 C   0  0  0  0  0  0  0  0  0  0  0  0
    1.2639    1.5654    0.0000 O   0  0  0  0  0  0  0  0  0  0  0  0
    1.9783    1.9779    0.0000 C   0  0  0  0  0  0  0  0  0  0  0  0
    0.5494    0.3279    0.0000 C   0  0  0  0  0  0  0  0  0  0  0  0
    0.5494   -0.4971    0.0000 C   0  0  0  0  0  0  0  0  0  0  0  0
   -0.1651   -0.9096    0.0000 C   0  0  0  0  0  0  0  0  0  0  0  0
   -0.1651   -1.7346    0.0000 O   0  0  0  0  0  0  0  0  0  0  0  0
    0.5494   -2.1471    0.0000 C   0  0  0  0  0  0  0  0  0  0  0  0
   -0.1651    0.7404    0.0000 C   0  0  0  0  0  0  0  0  0  0  0  0
   -0.8796    0.3279    0.0000 C   0  0  0  0  0  0  0  0  0  0  0  0
   -1.5940    0.7404    0.0000 O   0  0  0  0  0  0  0  0  0  0  0  0
   -2.3085    0.3279    0.0000 C   0  0  0  0  0  0  0  0  0  0  0  0
   -0.8796   -0.4971    0.0000 C   0  0  0  0  0  0  0  0  0  0  0  0
   -1.5940   -0.9096    0.0000 O   0  0  0  0  0  0  0  0  0  0  0  0
  1  2  2  0  0  0  0
  2  3  1  0  0  0  0
  2  5  1  0  0  0  0
  3  4  1  0  0  0  0
  5  6  2  0  0  0  0
  5 10  1  0  0  0  0
  6  7  1  0  0  0  0
  7  8  1  0  0  0  0
  7 14  2  0  0  0  0
  8  9  1  0  0  0  0
 10 11  2  0  0  0  0
 11 12  1  0  0  0  0
 11 14  1  0  0  0  0
 12 13  1  0  0  0  0
 14 15  1  0  0  0  0
M  END
> <DRUGBANK_ID>
DB08589

> <DRUG_GROUPS>
experimental

> <GENERIC_NAME>
SYRINGATE

> <CHEMICAL_FORMULA>
C10H12O5

> <MOLECULAR_WEIGHT>
212.1993

> <EXACT_MASS>
212.068473494

> <IUPAC_NAME>
methyl 4-hydroxy-3,5-dimethoxybenzoate

> <IUPAC_TRADITIONAL_NAME>
methyl 4-hydroxy-3,5-dimethoxybenzoate

> <INCHI_IDENTIFIER>
InChI=1S/C10H12O5/c1-13-7-4-6(10(12)15-3)5-8(14-2)9(7)11/h4-5,11H,1-3H3

> <INCHI_KEY>
InChIKey=ZMXJAEGJWHJMGX-UHFFFAOYSA-N

> <SMILES>
COC(=O)C1=CC(OC)=C(O)C(OC)=C1

> <JCHEM_ACCEPTOR_COUNT>
4

> <JCHEM_DONOR_COUNT>
1

> <JCHEM_ACIDIC_PKA>
8.44

> <JCHEM_BASIC_PKA>
-4.6

> <JCHEM_PHYSIOLOGICAL_CHARGE>
0

> <ALOGPS_LOGP>
1.84

> <JCHEM_LOGP>
1.36

> <ALOGPS_LOGS>
-1.9

> <JCHEM_POLARIZABILITY>
20.61

> <JCHEM_POLAR_SURFACE_AREA>
64.99

> <JCHEM_REFRACTIVITY>
52.99

> <JCHEM_ROTATABLE_BOND_COUNT>
4

> <ALOGPS_SOLUBILITY>
2.64e+00 g/l __ 

$$$$
