PY8
  Mrv0541 02241214062D          

 22 24  0  0  0  0            999 V2000
    4.9485   -0.1974    0.0000 Br   0  0  0  0  0  0  0  0  0  0  0  0
    4.2341    0.2151    0.0000 C    0  0  0  0  0  0  0  0  0  0  0  0
    4.2341    1.0401    0.0000 C    0  0  0  0  0  0  0  0  0  0  0  0
    3.5196    1.4526    0.0000 N    0  0  0  0  0  0  0  0  0  0  0  0
    2.8051    1.0401    0.0000 C    0  0  0  0  0  0  0  0  0  0  0  0
    2.8051    0.2151    0.0000 N    0  0  0  0  0  0  0  0  0  0  0  0
    3.5196   -0.1974    0.0000 C    0  0  0  0  0  0  0  0  0  0  0  0
    3.5196   -1.0224    0.0000 N    0  0  0  0  0  0  0  0  0  0  0  0
    2.7581   -1.5073    0.0000 C    0  0  0  0  0  0  0  0  0  0  0  0
    2.5031   -2.2919    0.0000 C    0  0  0  0  0  0  0  0  0  0  0  0
    1.6781   -2.2919    0.0000 C    0  0  0  0  0  0  0  0  0  0  0  0
    1.4232   -1.5073    0.0000 N    0  0  0  0  0  0  0  0  0  0  0  0
    0.6617   -1.0224    0.0000 S    0  0  0  0  0  0  0  0  0  0  0  0
    0.3572   -1.7891    0.0000 O    0  0  0  0  0  0  0  0  0  0  0  0
   -0.1486   -0.8674    0.0000 O    0  0  0  0  0  0  0  0  0  0  0  0
    0.6617   -0.1974    0.0000 C    0  0  0  0  0  0  0  0  0  0  0  0
    1.3762    0.2151    0.0000 C    0  0  0  0  0  0  0  0  0  0  0  0
   -0.0528    0.2151    0.0000 C    0  0  0  0  0  0  0  0  0  0  0  0
   -0.0528    1.0401    0.0000 C    0  0  0  0  0  0  0  0  0  0  0  0
    0.6617    1.4526    0.0000 C    0  0  0  0  0  0  0  0  0  0  0  0
    1.3762    1.0401    0.0000 C    0  0  0  0  0  0  0  0  0  0  0  0
    2.0906    1.4526    0.0000 N    0  0  0  0  0  0  0  0  0  0  0  0
  1  2  1  0  0  0  0
  2  3  1  0  0  0  0
  2  7  2  0  0  0  0
  3  4  2  0  0  0  0
  4  5  1  0  0  0  0
  5  6  2  0  0  0  0
  5 22  1  0  0  0  0
  6  7  1  0  0  0  0
  7  8  1  0  0  0  0
  8  9  1  0  0  0  0
  9 10  1  0  0  0  0
 10 11  1  0  0  0  0
 11 12  1  0  0  0  0
 12 13  1  0  0  0  0
 13 14  2  0  0  0  0
 13 15  2  0  0  0  0
 13 16  1  0  0  0  0
 16 17  1  0  0  0  0
 16 18  2  0  0  0  0
 17 21  2  0  0  0  0
 18 19  1  0  0  0  0
 19 20  2  0  0  0  0
 20 21  1  0  0  0  0
 21 22  1  0  0  0  0
M  END
> <DRUGBANK_ID>
DB08441

> <DRUG_GROUPS>
experimental

> <GENERIC_NAME>
6-BROMO-13-THIA-2,4,8,12,19-PENTAAZATRICYCLO[12.3.1.1~3,7~]NONADECA-1(18),3(19),4,6,14,16-HEXAENE 13,13-DIOXIDE

> <CHEMICAL_FORMULA>
C13H14BrN5O2S

> <MOLECULAR_WEIGHT>
384.252

> <EXACT_MASS>
383.005158054

> <IUPAC_NAME>
6-bromo-13$l^{6}-thia-2,4,8,12,19-pentaazatricyclo[12.3.1.1^{3,7}]nonadeca-1(17),3,5,7(19),14(18),15-hexaene-13,13-dione

> <IUPAC_TRADITIONAL_NAME>
6-bromo-13$l^{6}-thia-2,4,8,12,19-pentaazatricyclo[12.3.1.1^{3,7}]nonadeca-1(17),3,5,7(19),14(18),15-hexaene-13,13-dione

> <INCHI_IDENTIFIER>
InChI=1S/C13H14BrN5O2S/c14-11-8-16-13-18-9-3-1-4-10(7-9)22(20,21)17-6-2-5-15-12(11)19-13/h1,3-4,7-8,17H,2,5-6H2,(H2,15,16,18,19)

> <INCHI_KEY>
InChIKey=AWSQADBSXFTFKL-UHFFFAOYSA-N

> <SMILES>
BrC1=C2NCCCNS(=O)(=O)C3=CC=CC(NC(N=C1)=N2)=C3

> <JCHEM_ACCEPTOR_COUNT>
6

> <JCHEM_DONOR_COUNT>
3

> <JCHEM_ACIDIC_PKA>
10.18

> <JCHEM_BASIC_PKA>
5.09

> <JCHEM_PHYSIOLOGICAL_CHARGE>
0

> <ALOGPS_LOGP>
1.84

> <JCHEM_LOGP>
1.72

> <ALOGPS_LOGS>
-3.7

> <JCHEM_POLARIZABILITY>
33.7

> <JCHEM_POLAR_SURFACE_AREA>
96.01

> <JCHEM_REFRACTIVITY>
89.24

> <JCHEM_ROTATABLE_BOND_COUNT>
0

> <ALOGPS_SOLUBILITY>
7.73e-02 g/l __ 

$$$$
