ZYU
  Mrv0541 02241214192D          

 15 17  0  0  0  0            999 V2000
   -0.6089    0.8389    0.0000 C   0  0  0  0  0  0  0  0  0  0  0  0
   -0.6089    1.6639    0.0000 C   0  0  0  0  0  0  0  0  0  0  0  0
    0.1056    2.0764    0.0000 O   0  0  0  0  0  0  0  0  0  0  0  0
    0.8200    1.6639    0.0000 C   0  0  0  0  0  0  0  0  0  0  0  0
    0.8200    0.8389    0.0000 C   0  0  0  0  0  0  0  0  0  0  0  0
    0.1056   -0.3986    0.0000 C   0  0  0  0  0  0  0  0  0  0  0  0
    0.8200   -0.8111    0.0000 N   0  0  0  0  0  0  0  0  0  0  0  0
    0.8200   -1.6361    0.0000 C   0  0  0  0  0  0  0  0  0  0  0  0
    0.1056   -2.0486    0.0000 N   0  0  0  0  0  0  0  0  0  0  0  0
   -0.6089   -1.6361    0.0000 C   0  0  0  0  0  0  0  0  0  0  0  0
   -0.6089   -0.8111    0.0000 C   0  0  0  0  0  0  0  0  0  0  0  0
   -1.3935   -0.5561    0.0000 N   0  0  0  0  0  0  0  0  0  0  0  0
   -1.8785   -1.2236    0.0000 C   0  0  0  0  0  0  0  0  0  0  0  0
   -1.3935   -1.8910    0.0000 N   0  0  0  0  0  0  0  0  0  0  0  0
    0.1056    0.4264    0.0000 N   0  0  0  0  0  0  0  0  0  0  0  0
  1  2  1  0  0  0  0
  1 15  1  0  0  0  0
  2  3  1  0  0  0  0
  3  4  1  0  0  0  0
  4  5  1  0  0  0  0
  5 15  1  0  0  0  0
  6  7  1  0  0  0  0
  6 11  2  0  0  0  0
  6 15  1  0  0  0  0
  7  8  2  0  0  0  0
  8  9  1  0  0  0  0
  9 10  2  0  0  0  0
 10 11  1  0  0  0  0
 10 14  1  0  0  0  0
 11 12  1  0  0  0  0
 12 13  2  0  0  0  0
 13 14  1  0  0  0  0
M  END
> <DRUGBANK_ID>
DB08780

> <DRUG_GROUPS>
experimental

> <GENERIC_NAME>
6-MORPHOLIN-4-YL-9H-PURINE

> <CHEMICAL_FORMULA>
C9H11N5O

> <MOLECULAR_WEIGHT>
205.2165

> <EXACT_MASS>
205.096359999

> <IUPAC_NAME>
6-(morpholin-4-yl)-9H-purine

> <IUPAC_TRADITIONAL_NAME>
6-(morpholin-4-yl)-9H-purine

> <INCHI_IDENTIFIER>
InChI=1S/C9H11N5O/c1-3-15-4-2-14(1)9-7-8(11-5-10-7)12-6-13-9/h5-6H,1-4H2,(H,10,11,12,13)

> <INCHI_KEY>
InChIKey=MEOMXKNIFWDDGZ-UHFFFAOYSA-N

> <SMILES>
C1CN(CCO1)C1=C2N=CNC2=NC=N1

> <JCHEM_ACCEPTOR_COUNT>
5

> <JCHEM_DONOR_COUNT>
1

> <JCHEM_ACIDIC_PKA>
9.84

> <JCHEM_BASIC_PKA>
4.94

> <JCHEM_PHYSIOLOGICAL_CHARGE>
0

> <ALOGPS_LOGP>
0.23

> <JCHEM_LOGP>
0.19

> <ALOGPS_LOGS>
-1.8

> <JCHEM_POLARIZABILITY>
20.33

> <JCHEM_POLAR_SURFACE_AREA>
66.93

> <JCHEM_REFRACTIVITY>
55.4

> <JCHEM_ROTATABLE_BOND_COUNT>
1

> <ALOGPS_SOLUBILITY>
3.57e+00 g/l __ 

$$$$
