OHN
  Mrv0541 02241214012D          

 22 22  0  0  0  0            999 V2000
   -6.5581   -2.5880    0.0000 C   0  0  0  0  0  0  0  0  0  0  0  0
   -5.8437   -3.0005    0.0000 C   0  0  0  0  0  0  0  0  0  0  0  0
   -5.1292   -2.5880    0.0000 C   0  0  0  0  0  0  0  0  0  0  0  0
   -4.4147   -3.0005    0.0000 C   0  0  0  0  0  0  0  0  0  0  0  0
   -3.7002   -2.5880    0.0000 C   0  0  0  0  0  0  0  0  0  0  0  0
   -2.9858   -3.0005    0.0000 C   0  0  0  0  0  0  0  0  0  0  0  0
   -2.2713   -2.5880    0.0000 C   0  0  0  0  0  0  0  0  0  0  0  0
   -1.5568   -3.0005    0.0000 C   0  0  0  0  0  0  0  0  0  0  0  0
   -0.8424   -2.5880    0.0000 C   0  0  0  0  0  0  0  0  0  0  0  0
   -0.1279   -3.0005    0.0000 C   0  0  0  0  0  0  0  0  0  0  0  0
   -0.1279   -3.8255    0.0000 O   0  0  0  0  0  0  0  0  0  0  0  0
    0.5866   -2.5880    0.0000 C   0  0  0  0  0  0  0  0  0  0  0  0
    1.3011   -3.0005    0.0000 C   0  0  0  0  0  0  0  0  0  0  0  0
    1.3011   -3.8255    0.0000 O   0  0  0  0  0  0  0  0  0  0  0  0
    2.0155   -2.5880    0.0000 N   0  0  0  0  0  0  0  0  0  0  0  0
    2.7300   -3.0005    0.0000 C   0  0  1  0  0  0  0  0  0  0  0  0
    3.4837   -2.6649    0.0000 C   0  0  0  0  0  0  0  0  0  0  0  0
    4.0357   -3.2780    0.0000 C   0  0  0  0  0  0  0  0  0  0  0  0
    2.8162   -3.8210    0.0000 C   0  0  0  0  0  0  0  0  0  0  0  0
    2.2031   -4.3730    0.0000 O   0  0  0  0  0  0  0  0  0  0  0  0
    3.6232   -3.9925    0.0000 O   0  0  0  0  0  0  0  0  0  0  0  0
    2.7606   -2.4173    0.0000 H   0  0  0  0  0  0  0  0  0  0  0  0
  1  2  1  0  0  0  0
  2  3  1  0  0  0  0
  3  4  1  0  0  0  0
  4  5  1  0  0  0  0
  5  6  1  0  0  0  0
  6  7  1  0  0  0  0
  7  8  1  0  0  0  0
  8  9  1  0  0  0  0
  9 10  1  0  0  0  0
 10 11  2  0  0  0  0
 10 12  1  0  0  0  0
 12 13  1  0  0  0  0
 13 14  2  0  0  0  0
 13 15  1  0  0  0  0
 16 15  1  1  0  0  0
 16 17  1  0  0  0  0
 16 19  1  0  0  0  0
 16 22  1  6  0  0  0
 17 18  1  0  0  0  0
 18 21  1  0  0  0  0
 19 20  2  0  0  0  0
 19 21  1  0  0  0  0
M  END
> <DRUGBANK_ID>
DB08324

> <DRUG_GROUPS>
experimental

> <GENERIC_NAME>
N-3-OXO-DODECANOYL-L-HOMOSERINE LACTONE

> <CHEMICAL_FORMULA>
C16H27NO4

> <MOLECULAR_WEIGHT>
297.3899

> <EXACT_MASS>
297.194008357

> <IUPAC_NAME>
3-oxo-N-[(3S)-2-oxooxolan-3-yl]dodecanamide

> <IUPAC_TRADITIONAL_NAME>
3-oxo-N-[(3S)-2-oxooxolan-3-yl]dodecanamide

> <INCHI_IDENTIFIER>
InChI=1S/C16H27NO4/c1-2-3-4-5-6-7-8-9-13(18)12-15(19)17-14-10-11-21-16(14)20/h14H,2-12H2,1H3,(H,17,19)/t14-/m0/s1

> <INCHI_KEY>
InChIKey=PHSRRHGYXQCRPU-AWEZNQCLSA-N

> <SMILES>
[H][C@@]1(CCOC1=O)NC(=O)CC(=O)CCCCCCCCC

> <JCHEM_ACCEPTOR_COUNT>
3

> <JCHEM_DONOR_COUNT>
1

> <JCHEM_ACIDIC_PKA>
10.31

> <JCHEM_BASIC_PKA>
-3.9

> <JCHEM_PHYSIOLOGICAL_CHARGE>
0

> <ALOGPS_LOGP>
2.9

> <JCHEM_LOGP>
2.95

> <ALOGPS_LOGS>
-3.8

> <JCHEM_POLARIZABILITY>
34.12

> <JCHEM_POLAR_SURFACE_AREA>
72.47

> <JCHEM_REFRACTIVITY>
79.59

> <JCHEM_ROTATABLE_BOND_COUNT>
11

> <ALOGPS_SOLUBILITY>
4.75e-02 g/l __ 

$$$$
