WH6
  Mrv0541 02241214172D          

 31 34  0  0  0  0            999 V2000
   -0.3365   -1.0885    0.0000 C   0  0  0  0  0  0  0  0  0  0  0  0
    0.2464   -0.4237    0.0000 C   0  0  0  0  0  0  0  0  0  0  0  0
    1.0612   -0.7914    0.0000 C   0  0  0  0  0  0  0  0  0  0  0  0
    1.2328   -1.5983    0.0000 C   0  0  0  0  0  0  0  0  0  0  0  0
    0.6197   -2.1504    0.0000 C   0  0  0  0  0  0  0  0  0  0  0  0
   -0.1649   -1.8954    0.0000 C   0  0  0  0  0  0  0  0  0  0  0  0
   -0.7780   -2.4475    0.0000 C   0  0  0  0  0  0  0  0  0  0  0  0
   -1.5627   -2.1925    0.0000 C   0  0  0  0  0  0  0  0  0  0  0  0
   -1.7342   -1.3856    0.0000 C   0  0  0  0  0  0  0  0  0  0  0  0
   -1.1211   -0.8335    0.0000 C   0  0  0  0  0  0  0  0  0  0  0  0
   -1.3392   -0.0188    0.0000 C   0  0  0  0  0  0  0  0  0  0  0  0
   -0.9095    0.7120    0.0000 C   0  0  2  0  0  0  0  0  0  0  0  0
   -1.3297    1.4486    0.0000 C   0  0  0  0  0  0  0  0  0  0  0  0
   -2.1690    1.4181    0.0000 C   0  0  0  0  0  0  0  0  0  0  0  0
   -2.5594    2.1613    0.0000 O   0  0  0  0  0  0  0  0  0  0  0  0
   -2.5955    0.7020    0.0000 O   0  0  0  0  0  0  0  0  0  0  0  0
   -0.0551    0.6879    0.0000 N   0  0  0  0  0  0  0  0  0  0  0  0
    0.4298    1.3554    0.0000 C   0  0  0  0  0  0  0  0  0  0  0  0
    0.1910    2.1764    0.0000 O   0  0  0  0  0  0  0  0  0  0  0  0
    1.2144    1.1004    0.0000 C   0  0  0  0  0  0  0  0  0  0  0  0
    1.9289    1.5129    0.0000 C   0  0  0  0  0  0  0  0  0  0  0  0
    2.6434    1.1004    0.0000 C   0  0  0  0  0  0  0  0  0  0  0  0
    3.3949    1.5346    0.0000 C   0  0  0  0  0  0  0  0  0  0  0  0
    3.3780    2.3809    0.0000 O   0  0  0  0  0  0  0  0  0  0  0  0
    4.1204    1.0967    0.0000 O   0  0  0  0  0  0  0  0  0  0  0  0
    2.6434    0.2754    0.0000 C   0  0  0  0  0  0  0  0  0  0  0  0
    1.9289   -0.1371    0.0000 C   0  0  0  0  0  0  0  0  0  0  0  0
    1.2144    0.2754    0.0000 C   0  0  0  0  0  0  0  0  0  0  0  0
    0.4298    0.0205    0.0000 C   0  0  0  0  0  0  0  0  0  0  0  0
    0.4791   -0.9222    0.0000 O   0  0  0  0  0  0  0  0  0  0  0  0
   -1.4934    0.7159    0.0000 H   0  0  0  0  0  0  0  0  0  0  0  0
  1  2  2  0  0  0  0
  1  6  1  0  0  0  0
  1 10  1  0  0  0  0
  2  3  1  0  0  0  0
  3  4  2  0  0  0  0
  4  5  1  0  0  0  0
  5  6  2  0  0  0  0
  6  7  1  0  0  0  0
  7  8  2  0  0  0  0
  8  9  1  0  0  0  0
  9 10  2  0  0  0  0
 10 11  1  0  0  0  0
 11 12  1  0  0  0  0
 12 13  1  0  0  0  0
 12 17  1  1  0  0  0
 12 31  1  1  0  0  0
 13 14  1  0  0  0  0
 14 15  2  0  0  0  0
 14 16  1  0  0  0  0
 17 18  1  0  0  0  0
 17 29  1  0  0  0  0
 18 19  2  0  0  0  0
 18 20  1  0  0  0  0
 20 21  2  0  0  0  0
 20 28  1  0  0  0  0
 21 22  1  0  0  0  0
 22 23  1  0  0  0  0
 22 26  2  0  0  0  0
 23 24  1  0  0  0  0
 23 25  2  0  0  0  0
 26 27  1  0  0  0  0
 27 28  2  0  0  0  0
 28 29  1  0  0  0  0
 29 30  2  0  0  0  0
M  END
> <DRUGBANK_ID>
DB08731

> <DRUG_GROUPS>
experimental

> <GENERIC_NAME>
2-[(1R)-2-carboxy-1-(naphthalen-1-ylmethyl)ethyl]-1,3-dioxo-2,3-dihydro-1H-isoindole-5-carboxylic acid

> <CHEMICAL_FORMULA>
C23H17NO6

> <MOLECULAR_WEIGHT>
403.3842

> <EXACT_MASS>
403.105587281

> <IUPAC_NAME>
2-[(2R)-1-carboxy-3-(naphthalen-1-yl)propan-2-yl]-1,3-dioxo-2,3-dihydro-1H-isoindole-5-carboxylic acid

> <IUPAC_TRADITIONAL_NAME>
2-[(2R)-1-carboxy-3-(naphthalen-1-yl)propan-2-yl]-1,3-dioxoisoindole-5-carboxylic acid

> <INCHI_IDENTIFIER>
InChI=1S/C23H17NO6/c25-20(26)12-16(10-14-6-3-5-13-4-1-2-7-17(13)14)24-21(27)18-9-8-15(23(29)30)11-19(18)22(24)28/h1-9,11,16H,10,12H2,(H,25,26)(H,29,30)/t16-/m1/s1

> <INCHI_KEY>
InChIKey=GPOKTQCDBPECSS-MRXNPFEDSA-N

> <SMILES>
[H][C@](CC(O)=O)(CC1=CC=CC2=CC=CC=C12)N1C(=O)C2=CC=C(C=C2C1=O)C(O)=O

> <JCHEM_ACCEPTOR_COUNT>
6

> <JCHEM_DONOR_COUNT>
2

> <JCHEM_ACIDIC_PKA>
3.33

> <JCHEM_BASIC_PKA>
-6.5

> <JCHEM_PHYSIOLOGICAL_CHARGE>
-2

> <ALOGPS_LOGP>
2.39

> <JCHEM_LOGP>
3.35

> <ALOGPS_LOGS>
-4.8

> <JCHEM_POLARIZABILITY>
40.76

> <JCHEM_POLAR_SURFACE_AREA>
111.98

> <JCHEM_REFRACTIVITY>
107.74

> <JCHEM_ROTATABLE_BOND_COUNT>
6

> <ALOGPS_SOLUBILITY>
6.46e-03 g/l __ 

$$$$
