SX5
  Mrv0541 02241214112D          

 27 28  0  0  0  0            999 V2000
   -5.2593   -1.6334    0.0000 O    0  0  0  0  0  0  0  0  0  0  0  0
   -4.5448   -1.2209    0.0000 C    0  0  0  0  0  0  0  0  0  0  0  0
   -4.5448   -0.3959    0.0000 O    0  0  0  0  0  0  0  0  0  0  0  0
   -3.8304   -1.6334    0.0000 C    0  0  0  0  0  0  0  0  0  0  0  0
   -3.1159   -1.2209    0.0000 C    0  0  0  0  0  0  0  0  0  0  0  0
   -2.4014   -1.6334    0.0000 C    0  0  0  0  0  0  0  0  0  0  0  0
   -2.4014   -2.4584    0.0000 O    0  0  0  0  0  0  0  0  0  0  0  0
   -1.6870   -1.2209    0.0000 N    0  0  0  0  0  0  0  0  0  0  0  0
   -0.9725   -1.6334    0.0000 C    0  0  0  0  0  0  0  0  0  0  0  0
   -0.9725   -2.4584    0.0000 C    0  0  0  0  0  0  0  0  0  0  0  0
   -0.2580   -2.8709    0.0000 C    0  0  0  0  0  0  0  0  0  0  0  0
    0.4565   -2.4584    0.0000 C    0  0  0  0  0  0  0  0  0  0  0  0
    1.1709   -2.8709    0.0000 Br   0  0  0  0  0  0  0  0  0  0  0  0
    0.4565   -1.6334    0.0000 C    0  0  0  0  0  0  0  0  0  0  0  0
   -0.2580   -1.2209    0.0000 C    0  0  0  0  0  0  0  0  0  0  0  0
   -0.2580   -0.3959    0.0000 C    0  0  0  0  0  0  0  0  0  0  0  0
   -0.9725    0.0166    0.0000 O    0  0  0  0  0  0  0  0  0  0  0  0
    0.4565    0.0166    0.0000 N    0  0  0  0  0  0  0  0  0  0  0  0
    1.1709   -0.3959    0.0000 C    0  0  0  0  0  0  0  0  0  0  0  0
    1.8854    0.0166    0.0000 C    0  0  2  0  0  0  0  0  0  0  0  0
    2.5999   -0.3959    0.0000 C    0  0  0  0  0  0  0  0  0  0  0  0
    1.8854    0.8416    0.0000 C    0  0  0  0  0  0  0  0  0  0  0  0
    0.4565    0.8416    0.0000 C    0  0  0  0  0  0  0  0  0  0  0  0
    1.1709    1.2541    0.0000 C    0  0  1  0  0  0  0  0  0  0  0  0
    1.1709    2.0791    0.0000 C    0  0  0  0  0  0  0  0  0  0  0  0
    1.8854   -0.5673    0.0000 H    0  0  0  0  0  0  0  0  0  0  0  0
    1.6766    1.5461    0.0000 H    0  0  0  0  0  0  0  0  0  0  0  0
  1  2  2  0  0  0  0
  2  3  1  0  0  0  0
  2  4  1  0  0  0  0
  5  4  1  0  0  0  0
  6  5  1  0  0  0  0
  7  6  2  0  0  0  0
  8  6  1  0  0  0  0
  9  8  1  0  0  0  0
 10  9  2  0  0  0  0
 11 10  1  0  0  0  0
 12 11  2  0  0  0  0
 12 14  1  0  0  0  0
 13 12  1  0  0  0  0
 14 15  2  0  0  0  0
 15  9  1  0  0  0  0
 15 16  1  0  0  0  0
 16 18  1  0  0  0  0
 16 17  2  0  0  0  0
 18 23  1  0  0  0  0
 19 18  1  0  0  0  0
 20 19  1  0  0  0  0
 20 22  1  0  0  0  0
 20 26  1  6  0  0  0
 20 21  1  1  0  0  0
 22 24  1  0  0  0  0
 24 23  1  0  0  0  0
 24 25  1  1  0  0  0
 24 27  1  6  0  0  0
M  END
> <DRUGBANK_ID>
DB08581

> <DRUG_GROUPS>
experimental

> <GENERIC_NAME>
4-[(4-bromo-2-{[(3R,5S)-3,5-dimethylpiperidin-1-yl]carbonyl}phenyl)amino]-4-oxobutanoic acid

> <CHEMICAL_FORMULA>
C18H23BrN2O4

> <MOLECULAR_WEIGHT>
411.29

> <EXACT_MASS>
410.084119881

> <IUPAC_NAME>
3-[(4-bromo-2-{[(3R,5S)-3,5-dimethylpiperidin-1-yl]carbonyl}phenyl)carbamoyl]propanoic acid

> <IUPAC_TRADITIONAL_NAME>
3-[(4-bromo-2-{[(3R,5S)-3,5-dimethylpiperidin-1-yl]carbonyl}phenyl)carbamoyl]propanoic acid

> <INCHI_IDENTIFIER>
InChI=1S/C18H23BrN2O4/c1-11-7-12(2)10-21(9-11)18(25)14-8-13(19)3-4-15(14)20-16(22)5-6-17(23)24/h3-4,8,11-12H,5-7,9-10H2,1-2H3,(H,20,22)(H,23,24)/t11-,12+

> <INCHI_KEY>
InChIKey=JSVSGWHGYIDZFX-TXEJJXNPSA-N

> <SMILES>
[H][C@]1(C)CN(C[C@@]([H])(C)C1)C(=O)C1=CC(Br)=CC=C1NC(=O)CCC(O)=O

> <JCHEM_ACCEPTOR_COUNT>
4

> <JCHEM_DONOR_COUNT>
2

> <JCHEM_ACIDIC_PKA>
3.04

> <JCHEM_BASIC_PKA>
0.05

> <JCHEM_PHYSIOLOGICAL_CHARGE>
-1

> <ALOGPS_LOGP>
2.7

> <JCHEM_LOGP>
3.33

> <ALOGPS_LOGS>
-4.2

> <JCHEM_POLARIZABILITY>
39.26

> <JCHEM_POLAR_SURFACE_AREA>
86.71

> <JCHEM_REFRACTIVITY>
99.39

> <JCHEM_ROTATABLE_BOND_COUNT>
5

> <ALOGPS_SOLUBILITY>
2.32e-02 g/l __ 

$$$$
