WRS
  Mrv0541 02241214172D          

 25 27  0  0  0  0            999 V2000
    2.0009   -0.1365    0.0000 C   0  0  0  0  0  0  0  0  0  0  0  0
   -0.1426    0.2760    0.0000 C   0  0  1  0  0  0  0  0  0  0  0  0
   -0.1426    1.1010    0.0000 C   0  0  0  0  0  0  0  0  0  0  0  0
   -0.8570    1.5135    0.0000 C   0  0  1  0  0  0  0  0  0  0  0  0
   -1.5715    1.1010    0.0000 C   0  0  0  0  0  0  0  0  0  0  0  0
   -0.8570   -0.1365    0.0000 C   0  0  0  0  0  0  0  0  0  0  0  0
   -0.8570   -0.9615    0.0000 C   0  0  0  0  0  0  0  0  0  0  0  0
   -1.5715   -1.3740    0.0000 C   0  0  0  0  0  0  0  0  0  0  0  0
   -2.2860   -0.9615    0.0000 C   0  0  0  0  0  0  0  0  0  0  0  0
   -2.2860   -0.1365    0.0000 C   0  0  0  0  0  0  0  0  0  0  0  0
    0.5719   -0.9615    0.0000 C   0  0  0  0  0  0  0  0  0  0  0  0
   -1.5715    0.2760    0.0000 C   0  0  0  0  0  0  0  0  0  0  0  0
    0.5719   -0.1365    0.0000 C   0  0  0  0  0  0  0  0  0  0  0  0
    1.2864    0.2760    0.0000 C   0  0  0  0  0  0  0  0  0  0  0  0
    2.7153    0.2760    0.0000 C   0  0  0  0  0  0  0  0  0  0  0  0
    3.4298   -0.1365    0.0000 C   0  0  0  0  0  0  0  0  0  0  0  0
    3.4298   -0.9615    0.0000 C   0  0  0  0  0  0  0  0  0  0  0  0
    2.7153   -1.3740    0.0000 C   0  0  0  0  0  0  0  0  0  0  0  0
    2.0009   -0.9615    0.0000 C   0  0  0  0  0  0  0  0  0  0  0  0
    1.2864   -1.3740    0.0000 O   0  0  0  0  0  0  0  0  0  0  0  0
   -0.1426   -1.3740    0.0000 O   0  0  0  0  0  0  0  0  0  0  0  0
   -0.8570    2.3385    0.0000 O   0  0  0  0  0  0  0  0  0  0  0  0
    1.2864    1.1010    0.0000 O   0  0  0  0  0  0  0  0  0  0  0  0
   -0.6483    0.5680    0.0000 H   0  0  0  0  0  0  0  0  0  0  0  0
   -0.8570    0.9296    0.0000 H   0  0  0  0  0  0  0  0  0  0  0  0
  1 14  1  0  0  0  0
  1 15  2  0  0  0  0
  1 19  1  0  0  0  0
  2  3  1  0  0  0  0
  2  6  1  0  0  0  0
  2 13  1  1  0  0  0
  2 24  1  1  0  0  0
  3  4  1  0  0  0  0
  4  5  1  0  0  0  0
  4 22  1  6  0  0  0
  4 25  1  6  0  0  0
  6  7  2  0  0  0  0
  6 12  1  0  0  0  0
  7  8  1  0  0  0  0
  8  9  2  0  0  0  0
  9 10  1  0  0  0  0
 10 12  2  0  0  0  0
 11 13  1  0  0  0  0
 11 20  1  0  0  0  0
 11 21  2  0  0  0  0
 13 14  2  0  0  0  0
 14 23  1  0  0  0  0
 15 16  1  0  0  0  0
 16 17  2  0  0  0  0
 17 18  1  0  0  0  0
 18 19  2  0  0  0  0
 19 20  1  0  0  0  0
M  END
> <DRUGBANK_ID>
DB08736

> <DRUG_GROUPS>
experimental

> <GENERIC_NAME>
4-HYDROXY-3-[(1S,3S)-3-HYDROXY-1-PHENYLBUTYL]-2H-CHROMEN-2-ONE

> <CHEMICAL_FORMULA>
C19H18O4

> <MOLECULAR_WEIGHT>
310.3438

> <EXACT_MASS>
310.120509064

> <IUPAC_NAME>
4-hydroxy-3-[(1S,3R)-3-hydroxy-1-phenylbutyl]-2H-chromen-2-one

> <IUPAC_TRADITIONAL_NAME>
4-hydroxy-3-[(1S,3R)-3-hydroxy-1-phenylbutyl]chromen-2-one

> <INCHI_IDENTIFIER>
InChI=1S/C19H18O4/c1-12(20)11-15(13-7-3-2-4-8-13)17-18(21)14-9-5-6-10-16(14)23-19(17)22/h2-10,12,15,20-21H,11H2,1H3/t12-,15+/m1/s1

> <INCHI_KEY>
InChIKey=ZUJMMGHIYSAEOU-DOMZBBRYSA-N

> <SMILES>
[H][C@](C)(O)C[C@@]([H])(C1=CC=CC=C1)C1=C(O)C2=CC=CC=C2OC1=O

> <JCHEM_ACCEPTOR_COUNT>
3

> <JCHEM_DONOR_COUNT>
2

> <JCHEM_ACIDIC_PKA>
6.4

> <JCHEM_BASIC_PKA>
-2.5

> <JCHEM_PHYSIOLOGICAL_CHARGE>
-1

> <ALOGPS_LOGP>
2.59

> <JCHEM_LOGP>
2.72

> <ALOGPS_LOGS>
-3.6

> <JCHEM_POLARIZABILITY>
32.75

> <JCHEM_POLAR_SURFACE_AREA>
66.76

> <JCHEM_REFRACTIVITY>
87.99

> <JCHEM_ROTATABLE_BOND_COUNT>
4

> <ALOGPS_SOLUBILITY>
8.06e-02 g/l __ 

$$$$
