J07
  Mrv0541 02241213472D          

 28 31  0  0  0  0            999 V2000
   -2.6977   -4.0399    0.0000 C    0  0  0  0  0  0  0  0  0  0  0  0
   -1.8908   -3.8683    0.0000 C    0  0  0  0  0  0  0  0  0  0  0  0
   -1.6358   -3.0837    0.0000 N    0  0  0  0  0  0  0  0  0  0  0  0
   -0.8289   -2.9122    0.0000 C    0  0  0  0  0  0  0  0  0  0  0  0
   -0.2768   -3.5253    0.0000 O    0  0  0  0  0  0  0  0  0  0  0  0
   -0.5739   -2.1276    0.0000 N    0  0  0  0  0  0  0  0  0  0  0  0
    0.2331   -1.9560    0.0000 C    0  0  0  0  0  0  0  0  0  0  0  0
    0.4880   -1.1714    0.0000 C    0  0  0  0  0  0  0  0  0  0  0  0
   -0.0640   -0.5583    0.0000 C    0  0  0  0  0  0  0  0  0  0  0  0
   -0.8710   -0.7298    0.0000 C    0  0  0  0  0  0  0  0  0  0  0  0
   -1.1259   -1.5145    0.0000 C    0  0  0  0  0  0  0  0  0  0  0  0
    0.1909    0.2263    0.0000 N    0  0  0  0  0  0  0  0  0  0  0  0
   -0.3611    0.8394    0.0000 C    0  0  0  0  0  0  0  0  0  0  0  0
   -0.1062    1.6240    0.0000 N    0  0  0  0  0  0  0  0  0  0  0  0
   -0.6582    2.2371    0.0000 C    0  0  0  0  0  0  0  0  0  0  0  0
   -1.4652    2.0656    0.0000 C    0  0  0  0  0  0  0  0  0  0  0  0
   -1.7201    1.2810    0.0000 C    0  0  0  0  0  0  0  0  0  0  0  0
   -1.1681    0.6679    0.0000 N    0  0  0  0  0  0  0  0  0  0  0  0
   -2.0172    2.6787    0.0000 Cl   0  0  0  0  0  0  0  0  0  0  0  0
   -0.4033    3.0217    0.0000 C    0  0  0  0  0  0  0  0  0  0  0  0
    0.3813    3.2767    0.0000 C    0  0  0  0  0  0  0  0  0  0  0  0
    1.0958    2.8642    0.0000 C    0  0  0  0  0  0  0  0  0  0  0  0
    1.8103    3.2767    0.0000 C    0  0  0  0  0  0  0  0  0  0  0  0
    1.8103    4.1017    0.0000 C    0  0  0  0  0  0  0  0  0  0  0  0
    1.0958    4.5142    0.0000 C    0  0  0  0  0  0  0  0  0  0  0  0
    0.3813    4.1017    0.0000 C    0  0  0  0  0  0  0  0  0  0  0  0
   -0.4033    4.3566    0.0000 N    0  0  0  0  0  0  0  0  0  0  0  0
   -0.8882    3.6892    0.0000 C    0  0  0  0  0  0  0  0  0  0  0  0
  2  3  1  0  0  0  0
  2  1  1  0  0  0  0
  4  3  1  0  0  0  0
  4  6  1  0  0  0  0
  5  4  2  0  0  0  0
  6 11  1  0  0  0  0
  7  6  1  0  0  0  0
  7  8  1  0  0  0  0
  8  9  1  0  0  0  0
  9 10  1  0  0  0  0
  9 12  1  0  0  0  0
 11 10  1  0  0  0  0
 12 13  1  0  0  0  0
 13 18  1  0  0  0  0
 14 13  2  0  0  0  0
 14 15  1  0  0  0  0
 15 16  2  0  0  0  0
 16 17  1  0  0  0  0
 16 19  1  0  0  0  0
 18 17  2  0  0  0  0
 20 28  2  0  0  0  0
 20 15  1  0  0  0  0
 21 20  1  0  0  0  0
 22 21  2  0  0  0  0
 23 22  1  0  0  0  0
 24 23  2  0  0  0  0
 24 25  1  0  0  0  0
 25 26  2  0  0  0  0
 26 21  1  0  0  0  0
 26 27  1  0  0  0  0
 27 28  1  0  0  0  0
M  END
> <DRUGBANK_ID>
DB08005

> <DRUG_GROUPS>
experimental

> <GENERIC_NAME>
4-{[5-chloro-4-(1H-indol-3-yl)pyrimidin-2-yl]amino}-N-ethylpiperidine-1-carboxamide

> <CHEMICAL_FORMULA>
C20H23ClN6O

> <MOLECULAR_WEIGHT>
398.889

> <EXACT_MASS>
398.162187095

> <IUPAC_NAME>
4-{[5-chloro-4-(1H-indol-3-yl)pyrimidin-2-yl]amino}-N-ethylpiperidine-1-carboxamide

> <IUPAC_TRADITIONAL_NAME>
4-{[5-chloro-4-(1H-indol-3-yl)pyrimidin-2-yl]amino}-N-ethylpiperidine-1-carboxamide

> <INCHI_IDENTIFIER>
InChI=1S/C20H23ClN6O/c1-2-22-20(28)27-9-7-13(8-10-27)25-19-24-12-16(21)18(26-19)15-11-23-17-6-4-3-5-14(15)17/h3-6,11-13,23H,2,7-10H2,1H3,(H,22,28)(H,24,25,26)

> <INCHI_KEY>
InChIKey=ARMFMDYRYOKSOW-UHFFFAOYSA-N

> <SMILES>
CCNC(=O)N1CCC(CC1)NC1=NC(C2=CNC3=CC=CC=C23)=C(Cl)C=N1

> <JCHEM_ACCEPTOR_COUNT>
4

> <JCHEM_DONOR_COUNT>
3

> <JCHEM_ACIDIC_PKA>
14.16

> <JCHEM_BASIC_PKA>
2.68

> <JCHEM_PHYSIOLOGICAL_CHARGE>
0

> <ALOGPS_LOGP>
3.83

> <JCHEM_LOGP>
2.44

> <ALOGPS_LOGS>
-4.3

> <JCHEM_POLARIZABILITY>
42.82

> <JCHEM_POLAR_SURFACE_AREA>
85.94

> <JCHEM_REFRACTIVITY>
111.56

> <JCHEM_ROTATABLE_BOND_COUNT>
4

> <ALOGPS_SOLUBILITY>
1.85e-02 g/l __ 

$$$$
