SCX
  Mrv0541 02241214092D          

 28 31  0  0  0  0            999 V2000
   -1.7718    1.4215    0.0000 C   0  0  0  0  0  0  0  0  0  0  0  0
   -0.9872    1.1665    0.0000 C   0  0  0  0  0  0  0  0  0  0  0  0
   -0.9872    0.3415    0.0000 N   0  0  0  0  0  0  0  0  0  0  0  0
   -1.7718    0.0866    0.0000 N   0  0  0  0  0  0  0  0  0  0  0  0
   -2.2567    0.7540    0.0000 C   0  0  0  0  0  0  0  0  0  0  0  0
   -0.2727    1.5790    0.0000 N   0  0  0  0  0  0  0  0  0  0  0  0
    0.4418    1.1665    0.0000 C   0  0  0  0  0  0  0  0  0  0  0  0
    0.4418    0.3415    0.0000 C   0  0  0  0  0  0  0  0  0  0  0  0
   -0.2727   -0.0710    0.0000 C   0  0  0  0  0  0  0  0  0  0  0  0
   -0.2727   -0.8960    0.0000 N   0  0  0  0  0  0  0  0  0  0  0  0
    1.1562    1.5790    0.0000 C   0  0  0  0  0  0  0  0  0  0  0  0
    0.4418   -1.3085    0.0000 C   0  0  0  0  0  0  0  0  0  0  0  0
    0.4418   -2.1335    0.0000 C   0  0  0  0  0  0  0  0  0  0  0  0
    1.1562   -2.5460    0.0000 C   0  0  0  0  0  0  0  0  0  0  0  0
    1.1562   -3.3710    0.0000 N   0  0  0  0  0  0  0  0  0  0  0  0
    0.4418   -3.7835    0.0000 C   0  0  0  0  0  0  0  0  0  0  0  0
   -0.2727   -3.3710    0.0000 N   0  0  0  0  0  0  0  0  0  0  0  0
   -0.2727   -2.5460    0.0000 C   0  0  0  0  0  0  0  0  0  0  0  0
    1.1562    2.4040    0.0000 C   0  0  0  0  0  0  0  0  0  0  0  0
    1.8707    2.8165    0.0000 C   0  0  0  0  0  0  0  0  0  0  0  0
    2.5852    2.4040    0.0000 C   0  0  0  0  0  0  0  0  0  0  0  0
    2.5852    1.5790    0.0000 C   0  0  0  0  0  0  0  0  0  0  0  0
    1.8707    1.1665    0.0000 C   0  0  0  0  0  0  0  0  0  0  0  0
   -2.0267    2.2061    0.0000 C   0  0  0  0  0  0  0  0  0  0  0  0
    0.4418   -4.6085    0.0000 N   0  0  0  0  0  0  0  0  0  0  0  0
   -2.8337    2.3776    0.0000 C   0  0  0  0  0  0  0  0  0  0  0  0
    0.4418    2.8165    0.0000 F   0  0  0  0  0  0  0  0  0  0  0  0
    1.8707    0.3415    0.0000 F   0  0  0  0  0  0  0  0  0  0  0  0
  1  2  2  0  0  0  0
  1 24  1  0  0  0  0
  2  6  1  0  0  0  0
  3  9  1  0  0  0  0
  3  2  1  0  0  0  0
  4  5  2  0  0  0  0
  4  3  1  0  0  0  0
  5  1  1  0  0  0  0
  6  7  2  0  0  0  0
  7 11  1  0  0  0  0
  8  7  1  0  0  0  0
  9  8  2  0  0  0  0
 10 12  1  0  0  0  0
 10  9  1  0  0  0  0
 11 19  1  0  0  0  0
 13 14  1  0  0  0  0
 13 12  1  0  0  0  0
 15 14  2  0  0  0  0
 16 15  1  0  0  0  0
 17 16  2  0  0  0  0
 17 18  1  0  0  0  0
 18 13  2  0  0  0  0
 19 27  1  0  0  0  0
 19 20  2  0  0  0  0
 21 20  1  0  0  0  0
 22 21  2  0  0  0  0
 23 11  2  0  0  0  0
 23 22  1  0  0  0  0
 25 16  1  0  0  0  0
 26 24  1  0  0  0  0
 28 23  1  0  0  0  0
M  END
> <DRUGBANK_ID>
DB08538

> <DRUG_GROUPS>
experimental

> <GENERIC_NAME>
N-((2-aminopyrimidin-5-yl)methyl)-5-(2,6-difluorophenyl)-3-ethylpyrazolo[1,5-a]pyrimidin-7-amine

> <CHEMICAL_FORMULA>
C19H17F2N7

> <MOLECULAR_WEIGHT>
381.382

> <EXACT_MASS>
381.151349989

> <IUPAC_NAME>
5-({[5-(2,6-difluorophenyl)-3-ethylpyrazolo[1,5-a]pyrimidin-7-yl]amino}methyl)pyrimidin-2-amine

> <IUPAC_TRADITIONAL_NAME>
5-({[5-(2,6-difluorophenyl)-3-ethylpyrazolo[1,5-a]pyrimidin-7-yl]amino}methyl)pyrimidin-2-amine

> <INCHI_IDENTIFIER>
InChI=1S/C19H17F2N7/c1-2-12-10-26-28-16(23-7-11-8-24-19(22)25-9-11)6-15(27-18(12)28)17-13(20)4-3-5-14(17)21/h3-6,8-10,23H,2,7H2,1H3,(H2,22,24,25)

> <INCHI_KEY>
InChIKey=HQPVGVSQPQVZLD-UHFFFAOYSA-N

> <SMILES>
CCC1=C2N=C(C=C(NCC3=CN=C(N)N=C3)N2N=C1)C1=C(F)C=CC=C1F

> <JCHEM_ACCEPTOR_COUNT>
6

> <JCHEM_DONOR_COUNT>
2

> <JCHEM_ACIDIC_PKA>
16.58

> <JCHEM_BASIC_PKA>
3.27

> <JCHEM_PHYSIOLOGICAL_CHARGE>
0

> <ALOGPS_LOGP>
3.11

> <JCHEM_LOGP>
3.14

> <ALOGPS_LOGS>
-4.2

> <JCHEM_POLARIZABILITY>
38.4

> <JCHEM_POLAR_SURFACE_AREA>
94.02

> <JCHEM_REFRACTIVITY>
113.98

> <JCHEM_ROTATABLE_BOND_COUNT>
5

> <ALOGPS_SOLUBILITY>
2.18e-02 g/l __ 

$$$$
