PIC
  Mrv0541 02241214042D          

 20 21  0  0  0  0            999 V2000
   -1.5936   -0.7036    0.0000 C   0  0  0  0  0  0  0  0  0  0  0  0
   -0.8792   -0.2911    0.0000 C   0  0  0  0  0  0  0  0  0  0  0  0
   -0.8792    0.5339    0.0000 C   0  0  0  0  0  0  0  0  0  0  0  0
    1.9787    0.5339    0.0000 C   0  0  0  0  0  0  0  0  0  0  0  0
    1.9787   -0.2911    0.0000 C   0  0  0  0  0  0  0  0  0  0  0  0
    1.2643   -0.7036    0.0000 C   0  0  0  0  0  0  0  0  0  0  0  0
    0.5498   -0.2911    0.0000 C   0  0  0  0  0  0  0  0  0  0  0  0
   -0.1647   -0.7036    0.0000 C   0  0  0  0  0  0  0  0  0  0  0  0
    2.6932    0.9464    0.0000 C   0  0  0  0  0  0  0  0  0  0  0  0
   -0.1647    0.9464    0.0000 C   0  0  0  0  0  0  0  0  0  0  0  0
    0.5498    0.5339    0.0000 C   0  0  0  0  0  0  0  0  0  0  0  0
    1.2643    0.9464    0.0000 C   0  0  0  0  0  0  0  0  0  0  0  0
    2.6932    1.7714    0.0000 O   0  0  0  0  0  0  0  0  0  0  0  0
    3.4077    0.5339    0.0000 O   0  0  0  0  0  0  0  0  0  0  0  0
   -2.0061    0.0109    0.0000 F   0  0  0  0  0  0  0  0  0  0  0  0
   -1.1811   -1.4180    0.0000 F   0  0  0  0  0  0  0  0  0  0  0  0
   -2.3081   -1.1161    0.0000 P   0  0  0  0  0  0  0  0  0  0  0  0
   -3.0226   -1.5286    0.0000 O   0  0  0  0  0  0  0  0  0  0  0  0
   -2.7206   -0.4016    0.0000 O   0  0  0  0  0  0  0  0  0  0  0  0
   -1.8956   -1.8305    0.0000 O   0  0  0  0  0  0  0  0  0  0  0  0
  1  2  1  0  0  0  0
  1 15  1  0  0  0  0
  1 16  1  0  0  0  0
  1 17  1  0  0  0  0
  2  3  1  0  0  0  0
  2  8  2  0  0  0  0
  3 10  2  0  0  0  0
  4  5  1  0  0  0  0
  4  9  1  0  0  0  0
  4 12  2  0  0  0  0
  5  6  2  0  0  0  0
  6  7  1  0  0  0  0
  7  8  1  0  0  0  0
  7 11  2  0  0  0  0
  9 13  1  0  0  0  0
  9 14  2  0  0  0  0
 10 11  1  0  0  0  0
 11 12  1  0  0  0  0
 17 18  1  0  0  0  0
 17 19  1  0  0  0  0
 17 20  2  0  0  0  0
M  END
> <DRUGBANK_ID>
DB08397

> <DRUG_GROUPS>
experimental

> <GENERIC_NAME>
6-(DIFLUORO-PHOSPHONO-METHYL)-NAPHTHALENE-2-CARBOXYLIC ACID

> <CHEMICAL_FORMULA>
C12H9F2O5P

> <MOLECULAR_WEIGHT>
302.1674

> <EXACT_MASS>
302.01556632

> <IUPAC_NAME>
6-[difluoro(phosphono)methyl]naphthalene-2-carboxylic acid

> <IUPAC_TRADITIONAL_NAME>
6-[difluoro(phosphono)methyl]naphthalene-2-carboxylic acid

> <INCHI_IDENTIFIER>
InChI=1S/C12H9F2O5P/c13-12(14,20(17,18)19)10-4-3-7-5-9(11(15)16)2-1-8(7)6-10/h1-6H,(H,15,16)(H2,17,18,19)

> <INCHI_KEY>
InChIKey=NKGNOWNPXBURRW-UHFFFAOYSA-N

> <SMILES>
OC(=O)C1=CC2=C(C=C1)C=C(C=C2)C(F)(F)P(O)(O)=O

> <JCHEM_ACCEPTOR_COUNT>
5

> <JCHEM_DONOR_COUNT>
3

> <JCHEM_ACIDIC_PKA>
0.49

> <JCHEM_PHYSIOLOGICAL_CHARGE>
-2

> <ALOGPS_LOGP>
1.33

> <JCHEM_LOGP>
1.87

> <ALOGPS_LOGS>
-3

> <JCHEM_POLARIZABILITY>
24.78

> <JCHEM_POLAR_SURFACE_AREA>
94.83

> <JCHEM_REFRACTIVITY>
66.49

> <JCHEM_ROTATABLE_BOND_COUNT>
3

> <ALOGPS_SOLUBILITY>
2.94e-01 g/l __ 

$$$$
