U73
  Mrv0541 02241214152D          

 18 19  0  0  0  0            999 V2000
    0.7300    2.2341    0.0000 O   0  0  0  0  0  0  0  0  0  0  0  0
    0.7300    1.4091    0.0000 C   0  0  0  0  0  0  0  0  0  0  0  0
    1.4445    0.9966    0.0000 N   0  0  0  0  0  0  0  0  0  0  0  0
    1.4445    0.1716    0.0000 C   0  0  0  0  0  0  0  0  0  0  0  0
    2.1120   -0.3133    0.0000 N   0  0  0  0  0  0  0  0  0  0  0  0
    1.8570   -1.0979    0.0000 C   0  0  0  0  0  0  0  0  0  0  0  0
    0.7771   -0.3133    0.0000 S   0  0  0  0  0  0  0  0  0  0  0  0
    1.0320   -1.0979    0.0000 C   0  0  0  0  0  0  0  0  0  0  0  0
    0.5471   -1.7654    0.0000 C   0  0  0  0  0  0  0  0  0  0  0  0
    0.8827   -2.5190    0.0000 C   0  0  0  0  0  0  0  0  0  0  0  0
   -0.2734   -1.6791    0.0000 C   0  0  0  0  0  0  0  0  0  0  0  0
    0.0156    0.9966    0.0000 C   0  0  0  0  0  0  0  0  0  0  0  0
   -0.6989    1.4091    0.0000 C   0  0  0  0  0  0  0  0  0  0  0  0
   -1.4134    0.9966    0.0000 C   0  0  0  0  0  0  0  0  0  0  0  0
   -2.1278    1.4091    0.0000 C   0  0  0  0  0  0  0  0  0  0  0  0
   -2.1278    2.2341    0.0000 C   0  0  0  0  0  0  0  0  0  0  0  0
   -1.4134    2.6466    0.0000 N   0  0  0  0  0  0  0  0  0  0  0  0
   -0.6989    2.2341    0.0000 C   0  0  0  0  0  0  0  0  0  0  0  0
  1  2  2  0  0  0  0
  2  3  1  0  0  0  0
  2 12  1  0  0  0  0
  3  4  2  0  0  0  0
  4  5  1  0  0  0  0
  4  7  1  0  0  0  0
  5  6  1  0  0  0  0
  6  8  2  0  0  0  0
  7  8  1  0  0  0  0
  8  9  1  0  0  0  0
  9 10  1  0  0  0  0
  9 11  1  0  0  0  0
 12 13  1  0  0  0  0
 13 14  2  0  0  0  0
 13 18  1  0  0  0  0
 14 15  1  0  0  0  0
 15 16  2  0  0  0  0
 16 17  1  0  0  0  0
 17 18  2  0  0  0  0
M  END
> <DRUGBANK_ID>
DB08677

> <DRUG_GROUPS>
experimental

> <GENERIC_NAME>
N-(5-ISOPROPYL-THIAZOL-2-YL)-2-PYRIDIN-3-YL-ACETAMIDE

> <CHEMICAL_FORMULA>
C13H15N3OS

> <MOLECULAR_WEIGHT>
261.343

> <EXACT_MASS>
261.093582807

> <IUPAC_NAME>
N-[(2Z)-5-(propan-2-yl)-2,3-dihydro-1,3-thiazol-2-ylidene]-2-(pyridin-3-yl)acetamide

> <IUPAC_TRADITIONAL_NAME>
N-[(2Z)-5-isopropyl-3H-1,3-thiazol-2-ylidene]-2-(pyridin-3-yl)acetamide

> <INCHI_IDENTIFIER>
InChI=1S/C13H15N3OS/c1-9(2)11-8-15-13(18-11)16-12(17)6-10-4-3-5-14-7-10/h3-5,7-9H,6H2,1-2H3,(H,15,16,17)

> <INCHI_KEY>
InChIKey=WQZOOPQQADNJEG-UHFFFAOYSA-N

> <SMILES>
CC(C)C1=CN\C(S1)=N\C(=O)CC1=CC=CN=C1

> <JCHEM_ACCEPTOR_COUNT>
4

> <JCHEM_DONOR_COUNT>
1

> <JCHEM_ACIDIC_PKA>
10.07

> <JCHEM_BASIC_PKA>
4.87

> <JCHEM_PHYSIOLOGICAL_CHARGE>
0

> <ALOGPS_LOGP>
1.77

> <JCHEM_LOGP>
1.81

> <ALOGPS_LOGS>
-2.9

> <JCHEM_POLARIZABILITY>
27.74

> <JCHEM_POLAR_SURFACE_AREA>
54.35

> <JCHEM_REFRACTIVITY>
73.64

> <JCHEM_ROTATABLE_BOND_COUNT>
3

> <ALOGPS_SOLUBILITY>
3.67e-01 g/l __ 

$$$$
