TLX
  Mrv0541 02241214132D          

 18 19  0  0  0  0            999 V2000
   -0.5890   -0.0125    0.0000 N   0  0  0  0  0  0  0  0  0  0  0  0
   -0.5890   -0.8375    0.0000 C   0  0  0  0  0  0  0  0  0  0  0  0
   -1.3035   -1.2500    0.0000 C   0  0  0  0  0  0  0  0  0  0  0  0
   -2.0180   -0.8375    0.0000 C   0  0  0  0  0  0  0  0  0  0  0  0
   -2.0180   -0.0125    0.0000 N   0  0  2  0  0  0  0  0  0  0  0  0
   -2.6311    0.5395    0.0000 C   0  0  0  0  0  0  0  0  0  0  0  0
   -2.2955    1.2932    0.0000 C   0  0  0  0  0  0  0  0  0  0  0  0
   -1.4750    1.2070    0.0000 C   0  0  0  0  0  0  0  0  0  0  0  0
   -1.3035    0.4000    0.0000 C   0  0  1  0  0  0  0  0  0  0  0  0
    0.1254    0.4000    0.0000 C   0  0  0  0  0  0  0  0  0  0  0  0
    0.8399   -0.0125    0.0000 C   0  0  2  0  0  0  0  0  0  0  0  0
    1.5544    0.4000    0.0000 C   0  0  0  0  0  0  0  0  0  0  0  0
    2.2688   -0.0125    0.0000 C   0  0  0  0  0  0  0  0  0  0  0  0
    2.9833    0.4000    0.0000 C   0  0  0  0  0  0  0  0  0  0  0  0
    2.2688   -0.8375    0.0000 C   0  0  0  0  0  0  0  0  0  0  0  0
    0.8399   -0.8375    0.0000 N   0  0  0  0  0  0  0  0  0  0  0  0
   -0.8311    0.7432    0.0000 H   0  0  0  0  0  0  0  0  0  0  0  0
    0.8399    0.5714    0.0000 H   0  0  0  0  0  0  0  0  0  0  0  0
  1  2  1  0  0  0  0
  1  9  1  0  0  0  0
  1 10  1  0  0  0  0
  2  3  1  0  0  0  0
  3  4  1  0  0  0  0
  4  5  1  0  0  0  0
  5  6  1  6  0  0  0
  5  9  1  0  0  0  0
  6  7  1  0  0  0  0
  7  8  1  0  0  0  0
  8  9  1  0  0  0  0
  9 17  1  6  0  0  0
 10 11  1  0  0  0  0
 11 12  1  0  0  0  0
 11 16  1  1  0  0  0
 11 18  1  1  0  0  0
 12 13  1  0  0  0  0
 13 14  1  0  0  0  0
 13 15  1  0  0  0  0
M  END
> <DRUGBANK_ID>
DB08629

> <DRUG_GROUPS>
experimental

> <GENERIC_NAME>
N1-(2-AMINO-4-METHYLPENTYL)OCTAHYDRO-PYRROLO[1,2-A] PYRIMIDINE

> <CHEMICAL_FORMULA>
C13H27N3

> <MOLECULAR_WEIGHT>
225.3736

> <EXACT_MASS>
225.220497879

> <IUPAC_NAME>
(2S)-1-[(8aR)-octahydropyrrolo[1,2-a]pyrimidin-1-yl]-4-methylpentan-2-amine

> <IUPAC_TRADITIONAL_NAME>
(2S)-1-[(8aR)-hexahydro-2H-pyrrolo[1,2-a]pyrimidin-1-yl]-4-methylpentan-2-amine

> <INCHI_IDENTIFIER>
InChI=1S/C13H27N3/c1-11(2)9-12(14)10-16-8-4-7-15-6-3-5-13(15)16/h11-13H,3-10,14H2,1-2H3/t12-,13+/m0/s1

> <INCHI_KEY>
InChIKey=SOQLOPQBSFMPNJ-QWHCGFSZSA-N

> <SMILES>
[H][C@](N)(CC(C)C)CN1CCC[N@@]2CCC[C@@]12[H]

> <JCHEM_ACCEPTOR_COUNT>
3

> <JCHEM_DONOR_COUNT>
1

> <JCHEM_BASIC_PKA>
9.65

> <JCHEM_PHYSIOLOGICAL_CHARGE>
2

> <ALOGPS_LOGP>
1.4

> <JCHEM_LOGP>
1.47

> <ALOGPS_LOGS>
-1.2

> <JCHEM_POLARIZABILITY>
28.24

> <JCHEM_POLAR_SURFACE_AREA>
32.5

> <JCHEM_REFRACTIVITY>
69.33

> <JCHEM_ROTATABLE_BOND_COUNT>
4

> <ALOGPS_SOLUBILITY>
1.38e+01 g/l __ 

$$$$
