KY1
  Mrv0541 02241213502D          

 14 14  0  0  0  0            999 V2000
    1.6098    0.6586    0.0000 C   0  0  0  0  0  0  0  0  0  0  0  0
    0.8953    0.2461    0.0000 C   0  0  0  0  0  0  0  0  0  0  0  0
   -0.5336   -0.5789    0.0000 C   0  0  0  0  0  0  0  0  0  0  0  0
   -1.2481   -0.9914    0.0000 C   0  0  0  0  0  0  0  0  0  0  0  0
   -1.9625   -0.5789    0.0000 C   0  0  0  0  0  0  0  0  0  0  0  0
   -1.9625    0.2461    0.0000 C   0  0  0  0  0  0  0  0  0  0  0  0
   -1.2481    0.6586    0.0000 C   0  0  0  0  0  0  0  0  0  0  0  0
   -0.5336    0.2461    0.0000 C   0  0  0  0  0  0  0  0  0  0  0  0
    2.3243    0.2461    0.0000 C   0  0  0  0  0  0  0  0  0  0  0  0
    3.0388    0.6586    0.0000 O   0  0  0  0  0  0  0  0  0  0  0  0
    2.3243   -0.5789    0.0000 O   0  0  0  0  0  0  0  0  0  0  0  0
    0.1809    0.6586    0.0000 C   0  0  0  0  0  0  0  0  0  0  0  0
    0.1809    1.4836    0.0000 O   0  0  0  0  0  0  0  0  0  0  0  0
    0.1809   -0.9914    0.0000 N   0  0  0  0  0  0  0  0  0  0  0  0
  1  2  1  0  0  0  0
  1  9  1  0  0  0  0
  2 12  1  0  0  0  0
  3  4  2  0  0  0  0
  3  8  1  0  0  0  0
  3 14  1  0  0  0  0
  4  5  1  0  0  0  0
  5  6  2  0  0  0  0
  6  7  1  0  0  0  0
  7  8  2  0  0  0  0
  8 12  1  0  0  0  0
  9 10  2  0  0  0  0
  9 11  1  0  0  0  0
 12 13  2  0  0  0  0
M  END
> <DRUGBANK_ID>
DB08060

> <DRUG_GROUPS>
experimental

> <GENERIC_NAME>
4-(2-AMINOPHENYL)-4-OXOBUTANOIC ACID

> <CHEMICAL_FORMULA>
C10H11NO3

> <MOLECULAR_WEIGHT>
193.1992

> <EXACT_MASS>
193.073893223

> <IUPAC_NAME>
4-(2-aminophenyl)-4-oxobutanoic acid

> <IUPAC_TRADITIONAL_NAME>
4-(2-aminophenyl)-4-oxobutanoic acid

> <INCHI_IDENTIFIER>
InChI=1S/C10H11NO3/c11-8-4-2-1-3-7(8)9(12)5-6-10(13)14/h1-4H,5-6,11H2,(H,13,14)

> <INCHI_KEY>
InChIKey=BIASMBPERGWEBX-UHFFFAOYSA-N

> <SMILES>
NC1=CC=CC=C1C(=O)CCC(O)=O

> <JCHEM_ACCEPTOR_COUNT>
4

> <JCHEM_DONOR_COUNT>
2

> <JCHEM_ACIDIC_PKA>
4.27

> <JCHEM_BASIC_PKA>
2.4

> <JCHEM_PHYSIOLOGICAL_CHARGE>
-1

> <ALOGPS_LOGP>
0.69

> <JCHEM_LOGP>
1.02

> <ALOGPS_LOGS>
-2.3

> <JCHEM_POLARIZABILITY>
19.58

> <JCHEM_POLAR_SURFACE_AREA>
80.39

> <JCHEM_REFRACTIVITY>
52.05

> <JCHEM_ROTATABLE_BOND_COUNT>
4

> <ALOGPS_SOLUBILITY>
9.49e-01 g/l __ 

$$$$
