XXZ
  Mrv0541 02241214182D          

 27 30  0  0  0  0            999 V2000
    3.4378   -1.0794    0.0000 F   0  0  0  0  0  0  0  0  0  0  0  0
    3.2089   -0.2868    0.0000 C   0  0  0  0  0  0  0  0  0  0  0  0
    3.7810    0.3077    0.0000 C   0  0  0  0  0  0  0  0  0  0  0  0
    3.5522    1.1004    0.0000 C   0  0  0  0  0  0  0  0  0  0  0  0
    2.7513    1.2985    0.0000 C   0  0  0  0  0  0  0  0  0  0  0  0
    2.1793    0.7040    0.0000 C   0  0  0  0  0  0  0  0  0  0  0  0
    2.4081   -0.0886    0.0000 C   0  0  0  0  0  0  0  0  0  0  0  0
    1.8361   -0.6831    0.0000 C   0  0  0  0  0  0  0  0  0  0  0  0
    1.0352   -0.4849    0.0000 N   0  0  0  0  0  0  0  0  0  0  0  0
    2.0649   -1.4757    0.0000 N   0  0  0  0  0  0  0  0  0  0  0  0
    1.3784    0.9022    0.0000 N   0  0  0  0  0  0  0  0  0  0  0  0
    0.8064    0.3077    0.0000 C   0  0  0  0  0  0  0  0  0  0  0  0
    0.2344   -0.2868    0.0000 C   0  0  0  0  0  0  0  0  0  0  0  0
   -0.5665   -0.0886    0.0000 C   0  0  0  0  0  0  0  0  0  0  0  0
   -0.7953    0.7040    0.0000 N   0  0  0  0  0  0  0  0  0  0  0  0
   -0.2233    1.2985    0.0000 C   0  0  0  0  0  0  0  0  0  0  0  0
    0.5776    1.1004    0.0000 C   0  0  0  0  0  0  0  0  0  0  0  0
   -1.5961    0.9022    0.0000 C   0  0  0  0  0  0  0  0  0  0  0  0
   -1.8250    1.6948    0.0000 O   0  0  0  0  0  0  0  0  0  0  0  0
   -1.9394   -0.4849    0.0000 C   0  0  0  0  0  0  0  0  0  0  0  0
   -3.6555   -2.2683    0.0000 N   0  0  0  0  0  0  0  0  0  0  0  0
   -3.8843   -1.4757    0.0000 C   0  0  0  0  0  0  0  0  0  0  0  0
   -3.3122   -0.8812    0.0000 C   0  0  0  0  0  0  0  0  0  0  0  0
   -3.5411   -0.0886    0.0000 C   0  0  0  0  0  0  0  0  0  0  0  0
   -2.9690    0.5059    0.0000 C   0  0  0  0  0  0  0  0  0  0  0  0
   -2.5114   -1.0794    0.0000 C   0  0  0  0  0  0  0  0  0  0  0  0
   -2.1682    0.3077    0.0000 C   0  0  0  0  0  0  0  0  0  0  0  0
  1  2  1  0  0  0  0
  2  3  1  0  0  0  0
  2  7  2  0  0  0  0
  3  4  2  0  0  0  0
  4  5  1  0  0  0  0
  5  6  2  0  0  0  0
  6  7  1  0  0  0  0
  6 11  1  0  0  0  0
  7  8  1  0  0  0  0
  8  9  2  0  0  0  0
  8 10  1  0  0  0  0
  9 12  1  0  0  0  0
 11 12  1  0  0  0  0
 12 13  1  0  0  0  0
 12 17  1  0  0  0  0
 13 14  1  0  0  0  0
 14 15  1  0  0  0  0
 15 16  1  0  0  0  0
 15 18  1  0  0  0  0
 16 17  1  0  0  0  0
 18 19  2  0  0  0  0
 18 27  1  0  0  0  0
 20 26  1  0  0  0  0
 20 27  2  0  0  0  0
 21 22  1  0  0  0  0
 22 23  1  0  0  0  0
 23 24  1  0  0  0  0
 23 26  2  0  0  0  0
 24 25  2  0  0  0  0
 25 27  1  0  0  0  0
M  END
> <DRUGBANK_ID>
DB08750

> <DRUG_GROUPS>
experimental

> <GENERIC_NAME>
1-[4-(AMINOMETHYL)BENZOYL]-5'-FLUORO-1'H-SPIRO[PIPERIDINE-4,2'-QUINAZOLIN]-4'-AMINE

> <CHEMICAL_FORMULA>
C20H22FN5O

> <MOLECULAR_WEIGHT>
367.42

> <EXACT_MASS>
367.180838556

> <IUPAC_NAME>
1-{[4-(aminomethyl)phenyl]carbonyl}-5'-fluoro-1'H-spiro[piperidine-4,2'-quinazoline]-4'-amine

> <IUPAC_TRADITIONAL_NAME>
1-{[4-(aminomethyl)phenyl]carbonyl}-5'-fluoro-1'H-spiro[piperidine-4,2'-quinazoline]-4'-amine

> <INCHI_IDENTIFIER>
InChI=1S/C20H22FN5O/c21-15-2-1-3-16-17(15)18(23)25-20(24-16)8-10-26(11-9-20)19(27)14-6-4-13(12-22)5-7-14/h1-7,24H,8-12,22H2,(H2,23,25)

> <INCHI_KEY>
InChIKey=SFPCNWQWKOUNRT-UHFFFAOYSA-N

> <SMILES>
NCC1=CC=C(C=C1)C(=O)N1CCC2(CC1)NC1=CC=CC(F)=C1C(N)=N2

> <JCHEM_ACCEPTOR_COUNT>
5

> <JCHEM_DONOR_COUNT>
3

> <JCHEM_ACIDIC_PKA>
11.7

> <JCHEM_BASIC_PKA>
9.37

> <JCHEM_PHYSIOLOGICAL_CHARGE>
1

> <ALOGPS_LOGP>
1.75

> <JCHEM_LOGP>
1.72

> <ALOGPS_LOGS>
-3.7

> <JCHEM_POLARIZABILITY>
39.06

> <JCHEM_POLAR_SURFACE_AREA>
96.74

> <JCHEM_REFRACTIVITY>
103.87

> <JCHEM_ROTATABLE_BOND_COUNT>
2

> <ALOGPS_SOLUBILITY>
7.87e-02 g/l __ 

$$$$
