KU8
  Mrv0541 02241213502D          

 28 31  0  0  0  0            999 V2000
   -1.8729    1.2496    0.0000 C   0  0  0  0  0  0  0  0  0  0  0  0
   -2.6612    1.4927    0.0000 C   0  0  0  0  0  0  0  0  0  0  0  0
   -2.9626    2.2607    0.0000 C   0  0  0  0  0  0  0  0  0  0  0  0
   -2.5501    2.9752    0.0000 N   0  0  0  0  0  0  0  0  0  0  0  0
   -1.7343    3.0981    0.0000 C   0  0  0  0  0  0  0  0  0  0  0  0
   -1.1296    2.5370    0.0000 C   0  0  0  0  0  0  0  0  0  0  0  0
   -1.1912    1.7143    0.0000 N   0  0  0  0  0  0  0  0  0  0  0  0
   -0.4768    1.3018    0.0000 C   0  0  0  0  0  0  0  0  0  0  0  0
    0.2377    1.7143    0.0000 O   0  0  0  0  0  0  0  0  0  0  0  0
   -0.4768    0.4768    0.0000 C   0  0  0  0  0  0  0  0  0  0  0  0
    0.2377    0.0643    0.0000 C   0  0  0  0  0  0  0  0  0  0  0  0
   -1.1912    0.0643    0.0000 C   0  0  0  0  0  0  0  0  0  0  0  0
   -1.9057    0.4768    0.0000 F   0  0  0  0  0  0  0  0  0  0  0  0
   -1.1912   -0.7607    0.0000 C   0  0  0  0  0  0  0  0  0  0  0  0
   -0.4768   -1.1732    0.0000 C   0  0  0  0  0  0  0  0  0  0  0  0
    0.2377   -0.7607    0.0000 C   0  0  0  0  0  0  0  0  0  0  0  0
    0.9522   -1.1732    0.0000 C   0  0  0  0  0  0  0  0  0  0  0  0
    0.9522   -1.9982    0.0000 C   0  0  0  0  0  0  0  0  0  0  0  0
    1.6666   -2.4107    0.0000 C   0  0  0  0  0  0  0  0  0  0  0  0
    2.3811   -1.9982    0.0000 C   0  0  0  0  0  0  0  0  0  0  0  0
    3.0956   -2.4107    0.0000 C   0  0  0  0  0  0  0  0  0  0  0  0
    3.0956   -3.2357    0.0000 C   0  0  0  0  0  0  0  0  0  0  0  0
    2.3811   -3.6482    0.0000 C   0  0  0  0  0  0  0  0  0  0  0  0
    1.6666   -3.2357    0.0000 C   0  0  0  0  0  0  0  0  0  0  0  0
    0.9522   -3.6482    0.0000 C   0  0  0  0  0  0  0  0  0  0  0  0
    0.9522   -4.4732    0.0000 O   0  0  0  0  0  0  0  0  0  0  0  0
    0.2377   -3.2357    0.0000 N   0  0  0  0  0  0  0  0  0  0  0  0
    0.2377   -2.4107    0.0000 N   0  0  0  0  0  0  0  0  0  0  0  0
  1  2  1  0  0  0  0
  1  7  1  0  0  0  0
  2  3  1  0  0  0  0
  3  4  1  0  0  0  0
  4  5  1  0  0  0  0
  5  6  1  0  0  0  0
  6  7  1  0  0  0  0
  7  8  1  0  0  0  0
  8  9  2  0  0  0  0
  8 10  1  0  0  0  0
 10 11  2  0  0  0  0
 10 12  1  0  0  0  0
 11 16  1  0  0  0  0
 12 13  1  0  0  0  0
 12 14  2  0  0  0  0
 14 15  1  0  0  0  0
 15 16  2  0  0  0  0
 16 17  1  0  0  0  0
 17 18  1  0  0  0  0
 18 19  1  0  0  0  0
 18 28  2  0  0  0  0
 19 20  2  0  0  0  0
 19 24  1  0  0  0  0
 20 21  1  0  0  0  0
 21 22  2  0  0  0  0
 22 23  1  0  0  0  0
 23 24  2  0  0  0  0
 24 25  1  0  0  0  0
 25 26  2  0  0  0  0
 25 27  1  0  0  0  0
 27 28  1  0  0  0  0
M  END
> <DRUGBANK_ID>
DB08058

> <DRUG_GROUPS>
experimental

> <GENERIC_NAME>
4-[3-(1,4-diazepan-1-ylcarbonyl)-4-fluorobenzyl]phthalazin-1(2H)-one

> <CHEMICAL_FORMULA>
C21H21FN4O2

> <MOLECULAR_WEIGHT>
380.4154

> <EXACT_MASS>
380.164854141

> <IUPAC_NAME>
4-({3-[(1,4-diazepan-1-yl)carbonyl]-4-fluorophenyl}methyl)-1,2-dihydrophthalazin-1-one

> <IUPAC_TRADITIONAL_NAME>
4-({3-[(1,4-diazepan-1-yl)carbonyl]-4-fluorophenyl}methyl)-2H-phthalazin-1-one

> <INCHI_IDENTIFIER>
InChI=1S/C21H21FN4O2/c22-18-7-6-14(12-17(18)21(28)26-10-3-8-23-9-11-26)13-19-15-4-1-2-5-16(15)20(27)25-24-19/h1-2,4-7,12,23H,3,8-11,13H2,(H,25,27)

> <INCHI_KEY>
InChIKey=HGEPGGJUGUMFHT-UHFFFAOYSA-N

> <SMILES>
FC1=CC=C(CC2=NNC(=O)C3=CC=CC=C23)C=C1C(=O)N1CCCNCC1

> <JCHEM_ACCEPTOR_COUNT>
4

> <JCHEM_DONOR_COUNT>
2

> <JCHEM_ACIDIC_PKA>
11.06

> <JCHEM_BASIC_PKA>
8.62

> <JCHEM_PHYSIOLOGICAL_CHARGE>
1

> <ALOGPS_LOGP>
1.69

> <JCHEM_LOGP>
1.63

> <ALOGPS_LOGS>
-3.8

> <JCHEM_POLARIZABILITY>
37.69

> <JCHEM_POLAR_SURFACE_AREA>
73.8

> <JCHEM_REFRACTIVITY>
105.43

> <JCHEM_ROTATABLE_BOND_COUNT>
3

> <ALOGPS_SOLUBILITY>
5.85e-02 g/l __ 

$$$$
