ZYA
  Mrv0541 02241214182D          

 30 31  0  0  0  0            999 V2000
    1.0966    0.1207    0.0000 C   0  0  0  0  0  0  0  0  0  0  0  0
    2.3341    0.8351    0.0000 C   0  0  0  0  0  0  0  0  0  0  0  0
    3.1591    0.8351    0.0000 C   0  0  0  0  0  0  0  0  0  0  0  0
    3.5716    1.5496    0.0000 C   0  0  0  0  0  0  0  0  0  0  0  0
    4.3966    1.5496    0.0000 C   0  0  0  0  0  0  0  0  0  0  0  0
    4.8091    0.8351    0.0000 C   0  0  0  0  0  0  0  0  0  0  0  0
    4.3966    0.1207    0.0000 C   0  0  0  0  0  0  0  0  0  0  0  0
    3.5716    0.1207    0.0000 C   0  0  0  0  0  0  0  0  0  0  0  0
   -0.1409   -0.5938    0.0000 C   0  0  1  0  0  0  0  0  0  0  0  0
   -0.5534   -1.3083    0.0000 C   0  0  0  0  0  0  0  0  0  0  0  0
   -1.3784   -1.3083    0.0000 C   0  0  0  0  0  0  0  0  0  0  0  0
   -1.7909   -2.0227    0.0000 C   0  0  0  0  0  0  0  0  0  0  0  0
   -1.7909   -0.5938    0.0000 C   0  0  0  0  0  0  0  0  0  0  0  0
   -2.6159   -2.0227    0.0000 C   0  0  0  0  0  0  0  0  0  0  0  0
   -2.6159   -0.5938    0.0000 C   0  0  0  0  0  0  0  0  0  0  0  0
   -3.0284   -1.3083    0.0000 C   0  0  0  0  0  0  0  0  0  0  0  0
   -0.5534    0.1207    0.0000 C   0  0  0  0  0  0  0  0  0  0  0  0
   -1.7909    0.8351    0.0000 C   0  0  1  0  0  0  0  0  0  0  0  0
   -1.3784    1.5496    0.0000 C   0  0  0  0  0  0  0  0  0  0  0  0
   -2.6159    0.8351    0.0000 C   0  0  0  0  0  0  0  0  0  0  0  0
   -3.0284    0.1207    0.0000 C   0  0  0  0  0  0  0  0  0  0  0  0
    0.6841   -0.5938    0.0000 N   0  0  0  0  0  0  0  0  0  0  0  0
   -1.3784    0.1207    0.0000 N   0  0  0  0  0  0  0  0  0  0  0  0
    0.6841    0.8351    0.0000 O   0  0  0  0  0  0  0  0  0  0  0  0
    1.9216    0.1207    0.0000 O   0  0  0  0  0  0  0  0  0  0  0  0
   -3.8534   -1.3083    0.0000 O   0  0  0  0  0  0  0  0  0  0  0  0
   -0.1409    0.8351    0.0000 O   0  0  0  0  0  0  0  0  0  0  0  0
   -3.0284    1.5496    0.0000 O   0  0  0  0  0  0  0  0  0  0  0  0
    0.4078   -0.3941    0.0000 H   0  0  0  0  0  0  0  0  0  0  0  0
   -2.0829    1.3408    0.0000 H   0  0  0  0  0  0  0  0  0  0  0  0
  1 22  1  0  0  0  0
  1 24  2  0  0  0  0
  1 25  1  0  0  0  0
  2  3  1  0  0  0  0
  2 25  1  0  0  0  0
  3  4  2  0  0  0  0
  3  8  1  0  0  0  0
  4  5  1  0  0  0  0
  5  6  2  0  0  0  0
  6  7  1  0  0  0  0
  7  8  2  0  0  0  0
  9 10  1  0  0  0  0
  9 17  1  0  0  0  0
  9 22  1  1  0  0  0
  9 29  1  6  0  0  0
 10 11  1  0  0  0  0
 11 12  2  0  0  0  0
 11 13  1  0  0  0  0
 12 14  1  0  0  0  0
 13 15  2  0  0  0  0
 14 16  2  0  0  0  0
 15 16  1  0  0  0  0
 16 26  1  0  0  0  0
 17 23  1  0  0  0  0
 17 27  2  0  0  0  0
 18 19  1  6  0  0  0
 18 20  1  0  0  0  0
 18 23  1  0  0  0  0
 18 30  1  1  0  0  0
 20 21  1  0  0  0  0
 20 28  2  0  0  0  0
M  END
> <DRUGBANK_ID>
DB08775

> <DRUG_GROUPS>
experimental

> <GENERIC_NAME>
BENZOYL-TYROSINE-ALANINE-METHYL KETONE

> <CHEMICAL_FORMULA>
C21H24N2O5

> <MOLECULAR_WEIGHT>
384.4257

> <EXACT_MASS>
384.168521888

> <IUPAC_NAME>
benzyl N-[(1S)-2-(4-hydroxyphenyl)-1-{[(2S)-3-oxobutan-2-yl]carbamoyl}ethyl]carbamate

> <IUPAC_TRADITIONAL_NAME>
benzyl N-[(1S)-2-(4-hydroxyphenyl)-1-{[(2S)-3-oxobutan-2-yl]carbamoyl}ethyl]carbamate

> <INCHI_IDENTIFIER>
InChI=1S/C21H24N2O5/c1-14(15(2)24)22-20(26)19(12-16-8-10-18(25)11-9-16)23-21(27)28-13-17-6-4-3-5-7-17/h3-11,14,19,25H,12-13H2,1-2H3,(H,22,26)(H,23,27)/t14-,19-/m0/s1

> <INCHI_KEY>
InChIKey=CLDDOKCDXBMMKZ-LIRRHRJNSA-N

> <SMILES>
[H][C@@](C)(NC(=O)[C@]([H])(CC1=CC=C(O)C=C1)NC(=O)OCC1=CC=CC=C1)C(C)=O

> <JCHEM_ACCEPTOR_COUNT>
4

> <JCHEM_DONOR_COUNT>
3

> <JCHEM_ACIDIC_PKA>
9.5

> <JCHEM_BASIC_PKA>
-4.5

> <JCHEM_PHYSIOLOGICAL_CHARGE>
0

> <ALOGPS_LOGP>
2.47

> <JCHEM_LOGP>
2.73

> <ALOGPS_LOGS>
-4.3

> <JCHEM_POLARIZABILITY>
40.23

> <JCHEM_POLAR_SURFACE_AREA>
104.73

> <JCHEM_REFRACTIVITY>
103.63

> <JCHEM_ROTATABLE_BOND_COUNT>
9

> <ALOGPS_SOLUBILITY>
1.82e-02 g/l __ 

$$$$
