N23
  Mrv0541 02241213572D          

 20 22  0  0  0  0            999 V2000
   -1.8062   -1.2422    0.0000 C   0  0  0  0  0  0  0  0  0  0  0  0
   -1.6347   -0.4353    0.0000 C   0  0  0  0  0  0  0  0  0  0  0  0
   -2.1867    0.1778    0.0000 N   0  0  0  0  0  0  0  0  0  0  0  0
   -1.7742    0.8923    0.0000 C   0  0  0  0  0  0  0  0  0  0  0  0
   -2.0292    1.6769    0.0000 C   0  0  0  0  0  0  0  0  0  0  0  0
   -1.4771    2.2900    0.0000 C   0  0  0  0  0  0  0  0  0  0  0  0
   -0.6702    2.1185    0.0000 C   0  0  0  0  0  0  0  0  0  0  0  0
   -0.4152    1.3339    0.0000 C   0  0  0  0  0  0  0  0  0  0  0  0
   -0.9673    0.7208    0.0000 C   0  0  0  0  0  0  0  0  0  0  0  0
   -0.8810   -0.0997    0.0000 C   0  0  0  0  0  0  0  0  0  0  0  0
   -0.1666   -0.5122    0.0000 C   0  0  0  0  0  0  0  0  0  0  0  0
    0.5479   -0.0997    0.0000 C   0  0  0  0  0  0  0  0  0  0  0  0
    1.2624   -0.5122    0.0000 N   0  0  0  0  0  0  0  0  0  0  0  0
    1.9768   -0.0997    0.0000 C   0  0  0  0  0  0  0  0  0  0  0  0
    1.9768    0.7253    0.0000 O   0  0  0  0  0  0  0  0  0  0  0  0
    2.6913   -0.5122    0.0000 C   0  0  0  0  0  0  0  0  0  0  0  0
    3.4450   -0.1767    0.0000 C   0  0  0  0  0  0  0  0  0  0  0  0
    3.9970   -0.7897    0.0000 C   0  0  0  0  0  0  0  0  0  0  0  0
    3.5845   -1.5042    0.0000 C   0  0  0  0  0  0  0  0  0  0  0  0
    2.7776   -1.3327    0.0000 S   0  0  0  0  0  0  0  0  0  0  0  0
  1  2  1  0  0  0  0
  2  3  1  0  0  0  0
  2 10  2  0  0  0  0
  3  4  1  0  0  0  0
  4  5  2  0  0  0  0
  4  9  1  0  0  0  0
  5  6  1  0  0  0  0
  6  7  2  0  0  0  0
  7  8  1  0  0  0  0
  8  9  2  0  0  0  0
  9 10  1  0  0  0  0
 10 11  1  0  0  0  0
 11 12  1  0  0  0  0
 12 13  1  0  0  0  0
 13 14  1  0  0  0  0
 14 15  2  0  0  0  0
 14 16  1  0  0  0  0
 16 17  2  0  0  0  0
 16 20  1  0  0  0  0
 17 18  1  0  0  0  0
 18 19  2  0  0  0  0
 19 20  1  0  0  0  0
M  END
> <DRUGBANK_ID>
DB08235

> <DRUG_GROUPS>
experimental

> <GENERIC_NAME>
N-[2-(2-methyl-1H-indol-3-yl)ethyl]thiophene-2-carboxamide

> <CHEMICAL_FORMULA>
C16H16N2OS

> <MOLECULAR_WEIGHT>
284.376

> <EXACT_MASS>
284.098333834

> <IUPAC_NAME>
N-[2-(2-methyl-1H-indol-3-yl)ethyl]thiophene-2-carboxamide

> <IUPAC_TRADITIONAL_NAME>
N-[2-(2-methyl-1H-indol-3-yl)ethyl]thiophene-2-carboxamide

> <INCHI_IDENTIFIER>
InChI=1S/C16H16N2OS/c1-11-12(13-5-2-3-6-14(13)18-11)8-9-17-16(19)15-7-4-10-20-15/h2-7,10,18H,8-9H2,1H3,(H,17,19)

> <INCHI_KEY>
InChIKey=ACAKNPKRLPMONU-UHFFFAOYSA-N

> <SMILES>
CC1=C(CCNC(=O)C2=CC=CS2)C2=CC=CC=C2N1

> <JCHEM_ACCEPTOR_COUNT>
1

> <JCHEM_DONOR_COUNT>
2

> <JCHEM_ACIDIC_PKA>
14.15

> <JCHEM_BASIC_PKA>
-2.4

> <JCHEM_PHYSIOLOGICAL_CHARGE>
0

> <ALOGPS_LOGP>
3.66

> <JCHEM_LOGP>
3.27

> <ALOGPS_LOGS>
-4.8

> <JCHEM_POLARIZABILITY>
31.49

> <JCHEM_POLAR_SURFACE_AREA>
44.89

> <JCHEM_REFRACTIVITY>
82.53

> <JCHEM_ROTATABLE_BOND_COUNT>
4

> <ALOGPS_SOLUBILITY>
4.83e-03 g/l __ 

$$$$
