LK7
  Mrv0541 02241213522D          

 22 23  0  0  0  0            999 V2000
   -2.1530   -0.7290    0.0000 C   0  0  0  0  0  0  0  0  0  0  0  0
   -1.6010   -1.3421    0.0000 C   0  0  0  0  0  0  0  0  0  0  0  0
   -0.7940   -1.1706    0.0000 C   0  0  0  0  0  0  0  0  0  0  0  0
   -0.2420   -1.7837    0.0000 C   0  0  0  0  0  0  0  0  0  0  0  0
    0.5650   -1.6122    0.0000 O   0  0  0  0  0  0  0  0  0  0  0  0
   -0.5391   -0.3860    0.0000 C   0  0  2  0  0  0  0  0  0  0  0  0
   -1.0240    0.2815    0.0000 N   0  0  0  0  0  0  0  0  0  0  0  0
   -0.5391    0.9489    0.0000 C   0  0  0  0  0  0  0  0  0  0  0  0
   -0.7940    1.7335    0.0000 C   0  0  0  0  0  0  0  0  0  0  0  0
   -0.2420    2.3466    0.0000 O   0  0  0  0  0  0  0  0  0  0  0  0
   -1.6010    1.9051    0.0000 O   0  0  0  0  0  0  0  0  0  0  0  0
    0.2455    0.6940    0.0000 C   0  0  0  0  0  0  0  0  0  0  0  0
    0.2455   -0.1310    0.0000 C   0  0  2  0  0  0  0  0  0  0  0  0
    0.9600   -0.5435    0.0000 C   0  0  0  0  0  0  0  0  0  0  0  0
    1.6745   -0.1310    0.0000 C   0  0  0  0  0  0  0  0  0  0  0  0
    1.6745    0.6940    0.0000 C   0  0  0  0  0  0  0  0  0  0  0  0
    0.9600    1.1065    0.0000 C   0  0  2  0  0  0  0  0  0  0  0  0
    0.9600    1.9315    0.0000 O   0  0  0  0  0  0  0  0  0  0  0  0
    0.2455    2.3440    0.0000 C   0  0  0  0  0  0  0  0  0  0  0  0
   -0.1262   -0.7989    0.0000 H   0  0  0  0  0  0  0  0  0  0  0  0
    0.1845   -0.7118    0.0000 H   0  0  0  0  0  0  0  0  0  0  0  0
    0.4543    1.3984    0.0000 H   0  0  0  0  0  0  0  0  0  0  0  0
  1  2  1  0  0  0  0
  2  3  2  0  0  0  0
  3  4  1  0  0  0  0
  6  3  1  6  0  0  0
  4  5  2  0  0  0  0
  6 13  1  0  0  0  0
  6  7  1  0  0  0  0
  6 20  1  1  0  0  0
  7  8  1  0  0  0  0
  8 12  2  0  0  0  0
  8  9  1  0  0  0  0
  9 10  2  0  0  0  0
  9 11  1  0  0  0  0
 12 17  1  0  0  0  0
 12 13  1  0  0  0  0
 13 14  1  0  0  0  0
 13 21  1  1  0  0  0
 14 15  1  0  0  0  0
 15 16  1  0  0  0  0
 16 17  1  0  0  0  0
 17 18  1  1  0  0  0
 17 22  1  6  0  0  0
 18 19  1  0  0  0  0
M  END
> <DRUGBANK_ID>
DB08110

> <DRUG_GROUPS>
experimental

> <GENERIC_NAME>
(1R,4S,7AS)-1-(1-FORMYLPROP-1-EN-1-YL)-4-METHOXY-2,4,5,6,7,7A-HEXAHYDRO-1H-ISOINDOLE-3-CARBOXYLIC ACID

> <CHEMICAL_FORMULA>
C14H19NO4

> <MOLECULAR_WEIGHT>
265.305

> <EXACT_MASS>
265.131408101

> <IUPAC_NAME>
(1R,4S,7aS)-4-methoxy-1-[(2E)-1-oxobut-2-en-2-yl]-2,4,5,6,7,7a-hexahydro-1H-isoindole-3-carboxylic acid

> <IUPAC_TRADITIONAL_NAME>
(3R,3aS,7S)-7-methoxy-3-[(2E)-1-oxobut-2-en-2-yl]-3,3a,4,5,6,7-hexahydro-2H-isoindole-1-carboxylic acid

> <INCHI_IDENTIFIER>
InChI=1S/C14H19NO4/c1-3-8(7-16)12-9-5-4-6-10(19-2)11(9)13(15-12)14(17)18/h3,7,9-10,12,15H,4-6H2,1-2H3,(H,17,18)/b8-3-/t9-,10-,12-/m0/s1

> <INCHI_KEY>
InChIKey=ZYKSDPVHVMSKIL-IIHMJNQGSA-N

> <SMILES>
[H][C@]1(NC(C(O)=O)=C2[C@]1([H])CCC[C@]2([H])OC)C(=C/C)\C=O

> <JCHEM_ACCEPTOR_COUNT>
5

> <JCHEM_DONOR_COUNT>
2

> <JCHEM_ACIDIC_PKA>
4.27

> <JCHEM_BASIC_PKA>
0.9

> <JCHEM_PHYSIOLOGICAL_CHARGE>
-1

> <ALOGPS_LOGP>
1.65

> <JCHEM_LOGP>
0.62

> <ALOGPS_LOGS>
-2.3

> <JCHEM_POLARIZABILITY>
27.69

> <JCHEM_POLAR_SURFACE_AREA>
75.63

> <JCHEM_REFRACTIVITY>
71.63

> <JCHEM_ROTATABLE_BOND_COUNT>
4

> <ALOGPS_SOLUBILITY>
1.34e+00 g/l __ 

$$$$
