MAJ
  Mrv0541 02241213542D          

 13 14  0  0  0  0            999 V2000
   -0.2882    0.7143    0.0000 C   0  0  0  0  0  0  0  0  0  0  0  0
    0.4263    0.3018    0.0000 C   0  0  0  0  0  0  0  0  0  0  0  0
    0.4263   -0.5232    0.0000 C   0  0  0  0  0  0  0  0  0  0  0  0
   -0.2882   -0.9357    0.0000 C   0  0  0  0  0  0  0  0  0  0  0  0
   -1.0026    0.3018    0.0000 C   0  0  0  0  0  0  0  0  0  0  0  0
   -1.0026   -0.5232    0.0000 C   0  0  0  0  0  0  0  0  0  0  0  0
   -1.7873   -0.7781    0.0000 C   0  0  0  0  0  0  0  0  0  0  0  0
   -2.2722   -0.1107    0.0000 C   0  0  0  0  0  0  0  0  0  0  0  0
   -1.7873    0.5568    0.0000 C   0  0  0  0  0  0  0  0  0  0  0  0
    1.1408    0.7143    0.0000 S   0  0  0  0  0  0  0  0  0  0  0  0
    1.8552    1.1268    0.0000 O   0  0  0  0  0  0  0  0  0  0  0  0
    0.7283    1.4288    0.0000 O   0  0  0  0  0  0  0  0  0  0  0  0
    1.5533   -0.0001    0.0000 N   0  0  0  0  0  0  0  0  0  0  0  0
  1  2  1  0  0  0  0
  2 10  1  0  0  0  0
  3  2  2  0  0  0  0
  4  3  1  0  0  0  0
  5  1  2  0  0  0  0
  6  4  2  0  0  0  0
  6  5  1  0  0  0  0
  7  8  1  0  0  0  0
  7  6  1  0  0  0  0
  8  9  1  0  0  0  0
  9  5  1  0  0  0  0
 10 11  2  0  0  0  0
 10 13  1  0  0  0  0
 12 10  2  0  0  0  0
M  END
> <DRUGBANK_ID>
DB08165

> <DRUG_GROUPS>
experimental

> <GENERIC_NAME>
indane-5-sulfonamide

> <CHEMICAL_FORMULA>
C9H11NO2S

> <MOLECULAR_WEIGHT>
197.254

> <EXACT_MASS>
197.051049291

> <IUPAC_NAME>
2,3-dihydro-1H-indene-5-sulfonamide

> <IUPAC_TRADITIONAL_NAME>
2,3-dihydro-1H-indene-5-sulfonamide

> <INCHI_IDENTIFIER>
InChI=1S/C9H11NO2S/c10-13(11,12)9-5-4-7-2-1-3-8(7)6-9/h4-6H,1-3H2,(H2,10,11,12)

> <INCHI_KEY>
InChIKey=XVQJTFMKKZBBSX-UHFFFAOYSA-N

> <SMILES>
NS(=O)(=O)C1=CC=C2CCCC2=C1

> <JCHEM_ACCEPTOR_COUNT>
2

> <JCHEM_DONOR_COUNT>
1

> <JCHEM_ACIDIC_PKA>
10.46

> <JCHEM_PHYSIOLOGICAL_CHARGE>
0

> <ALOGPS_LOGP>
1.18

> <JCHEM_LOGP>
1.59

> <ALOGPS_LOGS>
-2.4

> <JCHEM_POLARIZABILITY>
20.22

> <JCHEM_POLAR_SURFACE_AREA>
60.16

> <JCHEM_REFRACTIVITY>
51.1

> <JCHEM_ROTATABLE_BOND_COUNT>
1

> <ALOGPS_SOLUBILITY>
7.70e-01 g/l __ 

$$$$
