OA1
  Mrv0541 02241214002D          

 15 16  0  0  0  0            999 V2000
   -0.0345    2.6028    0.0000 Br   0  0  0  0  0  0  0  0  0  0  0  0
   -0.0345    1.7778    0.0000 C    0  0  0  0  0  0  0  0  0  0  0  0
    0.6800    1.3653    0.0000 C    0  0  0  0  0  0  0  0  0  0  0  0
   -0.7490    1.3653    0.0000 C    0  0  0  0  0  0  0  0  0  0  0  0
   -0.7490    0.5403    0.0000 C    0  0  0  0  0  0  0  0  0  0  0  0
   -0.0345    0.1278    0.0000 C    0  0  0  0  0  0  0  0  0  0  0  0
    0.6800    0.5403    0.0000 C    0  0  0  0  0  0  0  0  0  0  0  0
    1.3944    0.1278    0.0000 C    0  0  0  0  0  0  0  0  0  0  0  0
    2.1089    0.5403    0.0000 O    0  0  0  0  0  0  0  0  0  0  0  0
    1.3944   -0.6972    0.0000 C    0  0  0  0  0  0  0  0  0  0  0  0
    2.0619   -1.1821    0.0000 O    0  0  0  0  0  0  0  0  0  0  0  0
    1.8069   -1.9667    0.0000 C    0  0  0  0  0  0  0  0  0  0  0  0
    2.2919   -2.6342    0.0000 N    0  0  0  0  0  0  0  0  0  0  0  0
    0.9819   -1.9667    0.0000 N    0  0  0  0  0  0  0  0  0  0  0  0
    0.7270   -1.1821    0.0000 C    0  0  0  0  0  0  0  0  0  0  0  0
  1  2  1  0  0  0  0
  2  3  1  0  0  0  0
  2  4  2  0  0  0  0
  3  7  2  0  0  0  0
  4  5  1  0  0  0  0
  5  6  2  0  0  0  0
  6  7  1  0  0  0  0
  7  8  1  0  0  0  0
  8  9  2  0  0  0  0
  8 10  1  0  0  0  0
 10 11  1  0  0  0  0
 10 15  2  0  0  0  0
 11 12  1  0  0  0  0
 12 13  1  0  0  0  0
 12 14  2  0  0  0  0
 14 15  1  0  0  0  0
M  END
> <DRUGBANK_ID>
DB08314

> <DRUG_GROUPS>
experimental

> <GENERIC_NAME>
(2-AMINO-1,3-OXAZOL-5-YL)-(3-BROMOPHENYL)METHANONE

> <CHEMICAL_FORMULA>
C10H7BrN2O2

> <MOLECULAR_WEIGHT>
267.079

> <EXACT_MASS>
265.969090125

> <IUPAC_NAME>
5-[(3-bromophenyl)carbonyl]-1,3-oxazol-2-amine

> <IUPAC_TRADITIONAL_NAME>
5-[(3-bromophenyl)carbonyl]-1,3-oxazol-2-amine

> <INCHI_IDENTIFIER>
InChI=1S/C10H7BrN2O2/c11-7-3-1-2-6(4-7)9(14)8-5-13-10(12)15-8/h1-5H,(H2,12,13)

> <INCHI_KEY>
InChIKey=YDCMMVTWXORJGO-UHFFFAOYSA-N

> <SMILES>
NC1=NC=C(O1)C(=O)C1=CC(Br)=CC=C1

> <JCHEM_ACCEPTOR_COUNT>
3

> <JCHEM_DONOR_COUNT>
1

> <JCHEM_ACIDIC_PKA>
13.58

> <JCHEM_BASIC_PKA>
1.32

> <JCHEM_PHYSIOLOGICAL_CHARGE>
0

> <ALOGPS_LOGP>
2.05

> <JCHEM_LOGP>
1.92

> <ALOGPS_LOGS>
-3

> <JCHEM_POLARIZABILITY>
22.1

> <JCHEM_POLAR_SURFACE_AREA>
69.12

> <JCHEM_REFRACTIVITY>
59.02

> <JCHEM_ROTATABLE_BOND_COUNT>
2

> <ALOGPS_SOLUBILITY>
3.03e-01 g/l __ 

$$$$
