SXX
  Mrv0541 02241214112D          

 16 16  0  0  0  0            999 V2000
    0.4651   -1.2823    0.0000 C   0  0  0  0  0  0  0  0  0  0  0  0
   -0.3599   -1.2823    0.0000 C   0  0  0  0  0  0  0  0  0  0  0  0
   -0.7724   -0.5678    0.0000 C   0  0  0  0  0  0  0  0  0  0  0  0
   -0.3599    0.1467    0.0000 C   0  0  0  0  0  0  0  0  0  0  0  0
    0.4651    0.1467    0.0000 C   0  0  0  0  0  0  0  0  0  0  0  0
    0.8776   -0.5678    0.0000 C   0  0  0  0  0  0  0  0  0  0  0  0
    0.8776   -1.9967    0.0000 O   0  0  0  0  0  0  0  0  0  0  0  0
    1.7026   -0.5678    0.0000 O   0  0  0  0  0  0  0  0  0  0  0  0
   -0.7724   -1.9967    0.0000 O   0  0  0  0  0  0  0  0  0  0  0  0
   -0.7724    0.8611    0.0000 C   0  0  0  0  0  0  0  0  0  0  0  0
   -0.3599    1.5756    0.0000 C   0  0  0  0  0  0  0  0  0  0  0  0
   -0.7724    2.2901    0.0000 C   0  0  0  0  0  0  0  0  0  0  0  0
   -1.5974    2.2901    0.0000 O   0  0  0  0  0  0  0  0  0  0  0  0
   -0.3599    3.0045    0.0000 O   0  0  0  0  0  0  0  0  0  0  0  0
   -1.5974   -1.9967    0.0000 C   0  0  0  0  0  0  0  0  0  0  0  0
    2.1151    0.1467    0.0000 C   0  0  0  0  0  0  0  0  0  0  0  0
  1  2  2  0  0  0  0
  1  6  1  0  0  0  0
  1  7  1  0  0  0  0
  2  3  1  0  0  0  0
  2  9  1  0  0  0  0
  3  4  2  0  0  0  0
  4  5  1  0  0  0  0
  4 10  1  0  0  0  0
  5  6  2  0  0  0  0
  6  8  1  0  0  0  0
  8 16  1  0  0  0  0
  9 15  1  0  0  0  0
 10 11  2  0  0  0  0
 11 12  1  0  0  0  0
 12 13  1  0  0  0  0
 12 14  2  0  0  0  0
M  END
> <DRUGBANK_ID>
DB08587

> <DRUG_GROUPS>
experimental

> <GENERIC_NAME>
SINAPINATE

> <CHEMICAL_FORMULA>
C11H12O5

> <MOLECULAR_WEIGHT>
224.21

> <EXACT_MASS>
224.068473494

> <IUPAC_NAME>
(2E)-3-(4-hydroxy-3,5-dimethoxyphenyl)prop-2-enoic acid

> <IUPAC_TRADITIONAL_NAME>
sinapinic acid

> <INCHI_IDENTIFIER>
InChI=1S/C11H12O5/c1-15-8-5-7(3-4-10(12)13)6-9(16-2)11(8)14/h3-6,14H,1-2H3,(H,12,13)/b4-3+

> <INCHI_KEY>
InChIKey=PCMORTLOPMLEFB-ONEGZZNKSA-N

> <SMILES>
COC1=CC(\C=C\C(O)=O)=CC(OC)=C1O

> <JCHEM_ACCEPTOR_COUNT>
5

> <JCHEM_DONOR_COUNT>
2

> <JCHEM_ACIDIC_PKA>
3.61

> <JCHEM_BASIC_PKA>
-4.6

> <JCHEM_PHYSIOLOGICAL_CHARGE>
-1

> <ALOGPS_LOGP>
1.63

> <JCHEM_LOGP>
1.52

> <ALOGPS_LOGS>
-2.5

> <JCHEM_POLARIZABILITY>
22.32

> <JCHEM_POLAR_SURFACE_AREA>
75.99

> <JCHEM_REFRACTIVITY>
57.97

> <JCHEM_ROTATABLE_BOND_COUNT>
4

> <ALOGPS_SOLUBILITY>
6.31e-01 g/l __ 

$$$$
