RDA
  Mrv0541 02241214072D          

 28 29  0  0  0  0            999 V2000
   -3.4299   -1.8227    0.0000 C    0  0  0  0  0  0  0  0  0  0  0  0
   -3.4299   -0.9977    0.0000 O    0  0  0  0  0  0  0  0  0  0  0  0
   -2.7154   -0.5852    0.0000 C    0  0  0  0  0  0  0  0  0  0  0  0
   -2.0010   -0.9977    0.0000 O    0  0  0  0  0  0  0  0  0  0  0  0
   -2.7154    0.2398    0.0000 C    0  0  0  0  0  0  0  0  0  0  0  0
   -3.4299    0.6523    0.0000 C    0  0  0  0  0  0  0  0  0  0  0  0
   -4.1444    0.2398    0.0000 O    0  0  0  0  0  0  0  0  0  0  0  0
   -3.4299    1.4773    0.0000 C    0  0  0  0  0  0  0  0  0  0  0  0
   -2.7154    1.8898    0.0000 C    0  0  0  0  0  0  0  0  0  0  0  0
   -2.7154    2.7148    0.0000 O    0  0  0  0  0  0  0  0  0  0  0  0
   -2.0010    1.4773    0.0000 C    0  0  0  0  0  0  0  0  0  0  0  0
   -1.2865    1.8898    0.0000 Cl   0  0  0  0  0  0  0  0  0  0  0  0
   -2.0010    0.6523    0.0000 C    0  0  0  0  0  0  0  0  0  0  0  0
   -1.2865    0.2398    0.0000 C    0  0  0  0  0  0  0  0  0  0  0  0
   -0.5720    0.6523    0.0000 C    0  0  0  0  0  0  0  0  0  0  0  0
    0.1425    0.2398    0.0000 C    0  0  0  0  0  0  0  0  0  0  0  0
    0.1425   -0.5852    0.0000 O    0  0  0  0  0  0  0  0  0  0  0  0
    0.8569    0.6523    0.0000 N    0  0  0  0  0  0  0  0  0  0  0  0
    1.5714    0.2398    0.0000 C    0  0  0  0  0  0  0  0  0  0  0  0
    2.2859    0.6523    0.0000 C    0  0  0  0  0  0  0  0  0  0  0  0
    3.0003    0.2398    0.0000 C    0  0  0  0  0  0  0  0  0  0  0  0
    3.7148    0.6523    0.0000 O    0  0  0  0  0  0  0  0  0  0  0  0
    3.0003   -0.5852    0.0000 C    0  0  0  0  0  0  0  0  0  0  0  0
    3.7148   -0.9977    0.0000 O    0  0  0  0  0  0  0  0  0  0  0  0
    4.4293   -0.5852    0.0000 C    0  0  0  0  0  0  0  0  0  0  0  0
    2.2859   -0.9977    0.0000 C    0  0  0  0  0  0  0  0  0  0  0  0
    1.5714   -0.5852    0.0000 C    0  0  0  0  0  0  0  0  0  0  0  0
    0.8569   -0.9977    0.0000 O    0  0  0  0  0  0  0  0  0  0  0  0
  1  2  1  0  0  0  0
  2  3  1  0  0  0  0
  3  4  2  0  0  0  0
  3  5  1  0  0  0  0
  5  6  1  0  0  0  0
  5 13  2  0  0  0  0
  6  7  1  0  0  0  0
  6  8  2  0  0  0  0
  8  9  1  0  0  0  0
  9 10  1  0  0  0  0
  9 11  2  0  0  0  0
 11 12  1  0  0  0  0
 11 13  1  0  0  0  0
 13 14  1  0  0  0  0
 14 15  1  0  0  0  0
 15 16  1  0  0  0  0
 16 17  2  0  0  0  0
 16 18  1  0  0  0  0
 18 19  1  0  0  0  0
 19 20  1  0  0  0  0
 19 27  2  0  0  0  0
 20 21  2  0  0  0  0
 21 22  1  0  0  0  0
 21 23  1  0  0  0  0
 23 24  1  0  0  0  0
 23 26  2  0  0  0  0
 24 25  1  0  0  0  0
 26 27  1  0  0  0  0
 27 28  1  0  0  0  0
M  END
> <DRUGBANK_ID>
DB08464

> <DRUG_GROUPS>
experimental

> <GENERIC_NAME>
METHYL 3-CHLORO-2-{3-[(2,5-DIHYDROXY-4-METHOXYPHENYL)AMINO]-3-OXOPROPYL}-4,6-DIHYDROXYBENZOATE

> <CHEMICAL_FORMULA>
C18H18ClNO8

> <MOLECULAR_WEIGHT>
411.79

> <EXACT_MASS>
411.072094264

> <IUPAC_NAME>
methyl 3-chloro-2-{2-[(2,5-dihydroxy-4-methoxyphenyl)carbamoyl]ethyl}-4,6-dihydroxybenzoate

> <IUPAC_TRADITIONAL_NAME>
methyl 3-chloro-2-{2-[(2,5-dihydroxy-4-methoxyphenyl)carbamoyl]ethyl}-4,6-dihydroxybenzoate

> <INCHI_IDENTIFIER>
InChI=1S/C18H18ClNO8/c1-27-14-7-10(21)9(5-11(14)22)20-15(25)4-3-8-16(18(26)28-2)12(23)6-13(24)17(8)19/h5-7,21-24H,3-4H2,1-2H3,(H,20,25)

> <INCHI_KEY>
InChIKey=GUVWEHNRWHNDRF-UHFFFAOYSA-N

> <SMILES>
COC(=O)C1=C(CCC(=O)NC2=C(O)C=C(OC)C(O)=C2)C(Cl)=C(O)C=C1O

> <JCHEM_ACCEPTOR_COUNT>
7

> <JCHEM_DONOR_COUNT>
5

> <JCHEM_ACIDIC_PKA>
7.04

> <JCHEM_BASIC_PKA>
-4.1

> <JCHEM_PHYSIOLOGICAL_CHARGE>
0

> <ALOGPS_LOGP>
2.53

> <JCHEM_LOGP>
3.38

> <ALOGPS_LOGS>
-4

> <JCHEM_POLARIZABILITY>
39.36

> <JCHEM_POLAR_SURFACE_AREA>
145.55

> <JCHEM_REFRACTIVITY>
101.46

> <JCHEM_ROTATABLE_BOND_COUNT>
7

> <ALOGPS_SOLUBILITY>
3.99e-02 g/l __ 

$$$$
