LAE
  Mrv0541 02241213512D          

 18 18  0  0  0  0            999 V2000
   -2.3769   -0.1635    0.0000 C   0  0  2  0  0  0  0  0  0  0  0  0
   -2.4632   -0.9840    0.0000 C   0  0  0  0  0  0  0  0  0  0  0  0
   -3.2701   -1.1555    0.0000 O   0  0  0  0  0  0  0  0  0  0  0  0
   -3.6826   -0.4410    0.0000 C   0  0  0  0  0  0  0  0  0  0  0  0
   -3.1306    0.1721    0.0000 C   0  0  0  0  0  0  0  0  0  0  0  0
   -1.8501   -1.5360    0.0000 O   0  0  0  0  0  0  0  0  0  0  0  0
   -1.6625    0.2490    0.0000 N   0  0  0  0  0  0  0  0  0  0  0  0
   -0.9480   -0.1635    0.0000 C   0  0  0  0  0  0  0  0  0  0  0  0
   -0.2335    0.2490    0.0000 C   0  0  0  0  0  0  0  0  0  0  0  0
    0.4809   -0.1635    0.0000 C   0  0  0  0  0  0  0  0  0  0  0  0
    1.1954    0.2490    0.0000 C   0  0  0  0  0  0  0  0  0  0  0  0
    1.9099   -0.1635    0.0000 C   0  0  0  0  0  0  0  0  0  0  0  0
    2.6244    0.2490    0.0000 C   0  0  0  0  0  0  0  0  0  0  0  0
    3.3388   -0.1635    0.0000 C   0  0  0  0  0  0  0  0  0  0  0  0
    4.0533    0.2490    0.0000 C   0  0  0  0  0  0  0  0  0  0  0  0
   -0.9480   -0.9885    0.0000 O   0  0  0  0  0  0  0  0  0  0  0  0
    0.4809   -0.9885    0.0000 O   0  0  0  0  0  0  0  0  0  0  0  0
   -1.8872   -0.4815    0.0000 H   0  0  0  0  0  0  0  0  0  0  0  0
  1  2  1  0  0  0  0
  1  5  1  0  0  0  0
  1  7  1  6  0  0  0
  1 18  1  1  0  0  0
  2  3  1  0  0  0  0
  2  6  2  0  0  0  0
  3  4  1  0  0  0  0
  4  5  1  0  0  0  0
  7  8  1  0  0  0  0
  8  9  1  0  0  0  0
  8 16  2  0  0  0  0
  9 10  1  0  0  0  0
 10 11  1  0  0  0  0
 10 17  2  0  0  0  0
 11 12  1  0  0  0  0
 12 13  1  0  0  0  0
 13 14  1  0  0  0  0
 14 15  1  0  0  0  0
M  END
> <DRUGBANK_ID>
DB08081

> <DRUG_GROUPS>
experimental

> <GENERIC_NAME>
3-OXO-OCTANOIC ACID (2-OXO-TETRAHYDRO-FURAN-3-YL)-AMIDE

> <CHEMICAL_FORMULA>
C12H19NO4

> <MOLECULAR_WEIGHT>
241.2836

> <EXACT_MASS>
241.131408101

> <IUPAC_NAME>
3-oxo-N-[(3S)-2-oxooxolan-3-yl]octanamide

> <IUPAC_TRADITIONAL_NAME>
3-oxo-N-[(3S)-2-oxooxolan-3-yl]octanamide

> <INCHI_IDENTIFIER>
InChI=1S/C12H19NO4/c1-2-3-4-5-9(14)8-11(15)13-10-6-7-17-12(10)16/h10H,2-8H2,1H3,(H,13,15)/t10-/m0/s1

> <INCHI_KEY>
InChIKey=FXCMGCFNLNFLSH-JTQLQIEISA-N

> <SMILES>
[H][C@@]1(CCOC1=O)NC(=O)CC(=O)CCCCC

> <JCHEM_ACCEPTOR_COUNT>
3

> <JCHEM_DONOR_COUNT>
1

> <JCHEM_ACIDIC_PKA>
10.31

> <JCHEM_BASIC_PKA>
-3.9

> <JCHEM_PHYSIOLOGICAL_CHARGE>
0

> <ALOGPS_LOGP>
0.96

> <JCHEM_LOGP>
1.17

> <ALOGPS_LOGS>
-1.8

> <JCHEM_POLARIZABILITY>
25.36

> <JCHEM_POLAR_SURFACE_AREA>
72.47

> <JCHEM_REFRACTIVITY>
61.18

> <JCHEM_ROTATABLE_BOND_COUNT>
7

> <ALOGPS_SOLUBILITY>
4.28e+00 g/l __ 

$$$$
