LZG
  Mrv0541 02241213532D          

 35 38  0  0  0  0            999 V2000
    8.5563   39.1029    0.0000 Cl   0  0  0  0  0  0  0  0  0  0  0  0
    8.5563   38.2779    0.0000 C    0  0  0  0  0  0  0  0  0  0  0  0
    9.2237   37.7930    0.0000 C    0  0  0  0  0  0  0  0  0  0  0  0
    8.9688   37.0084    0.0000 C    0  0  0  0  0  0  0  0  0  0  0  0
    7.8889   37.7930    0.0000 S    0  0  0  0  0  0  0  0  0  0  0  0
    8.1438   37.0084    0.0000 C    0  0  0  0  0  0  0  0  0  0  0  0
    7.6589   36.3410    0.0000 C    0  0  0  0  0  0  0  0  0  0  0  0
    7.9944   35.5873    0.0000 O    0  0  0  0  0  0  0  0  0  0  0  0
    6.8384   36.4272    0.0000 N    0  0  0  0  0  0  0  0  0  0  0  0
    6.3535   35.7597    0.0000 C    0  0  2  0  0  0  0  0  0  0  0  0
    6.6084   34.9751    0.0000 C    0  0  1  0  0  0  0  0  0  0  0  0
    7.3930   34.7202    0.0000 F    0  0  0  0  0  0  0  0  0  0  0  0
    5.9410   34.4902    0.0000 C    0  0  0  0  0  0  0  0  0  0  0  0
    5.5285   35.7597    0.0000 C    0  0  0  0  0  0  0  0  0  0  0  0
    5.2735   34.9751    0.0000 N    0  0  0  0  0  0  0  0  0  0  0  0
    4.4889   34.7202    0.0000 C    0  0  0  0  0  0  0  0  0  0  0  0
    4.3174   33.9132    0.0000 C    0  0  0  0  0  0  0  0  0  0  0  0
    4.9305   33.3612    0.0000 O    0  0  0  0  0  0  0  0  0  0  0  0
    3.5328   33.6583    0.0000 N    0  0  0  0  0  0  0  0  0  0  0  0
    3.3612   32.8513    0.0000 C    0  0  0  0  0  0  0  0  0  0  0  0
    3.9743   32.2993    0.0000 C    0  0  0  0  0  0  0  0  0  0  0  0
    4.7590   32.5542    0.0000 F    0  0  0  0  0  0  0  0  0  0  0  0
    2.5766   32.5964    0.0000 C    0  0  0  0  0  0  0  0  0  0  0  0
    2.4051   31.7894    0.0000 C    0  0  0  0  0  0  0  0  0  0  0  0
    3.0182   31.2374    0.0000 C    0  0  0  0  0  0  0  0  0  0  0  0
    3.8028   31.4923    0.0000 C    0  0  0  0  0  0  0  0  0  0  0  0
    2.8467   30.4304    0.0000 N    0  0  0  0  0  0  0  0  0  0  0  0
    3.4598   29.8784    0.0000 C    0  0  0  0  0  0  0  0  0  0  0  0
    4.2444   30.1333    0.0000 O    0  0  0  0  0  0  0  0  0  0  0  0
    3.2882   29.0714    0.0000 C    0  0  0  0  0  0  0  0  0  0  0  0
    2.5036   28.8164    0.0000 C    0  0  0  0  0  0  0  0  0  0  0  0
    1.8905   29.3685    0.0000 C    0  0  0  0  0  0  0  0  0  0  0  0
    2.0620   30.1755    0.0000 C    0  0  0  0  0  0  0  0  0  0  0  0
    6.9302   35.6684    0.0000 H    0  0  0  0  0  0  0  0  0  0  0  0
    7.0213   35.3880    0.0000 H    0  0  0  0  0  0  0  0  0  0  0  0
  1  2  1  0  0  0  0
  2  3  2  0  0  0  0
  2  5  1  0  0  0  0
  3  4  1  0  0  0  0
  4  6  2  0  0  0  0
  5  6  1  0  0  0  0
  6  7  1  0  0  0  0
  7  8  2  0  0  0  0
  7  9  1  0  0  0  0
 10  9  1  6  0  0  0
 10 11  1  0  0  0  0
 10 14  1  0  0  0  0
 10 34  1  1  0  0  0
 11 12  1  1  0  0  0
 11 13  1  0  0  0  0
 11 35  1  6  0  0  0
 13 15  1  0  0  0  0
 14 15  1  0  0  0  0
 15 16  1  0  0  0  0
 16 17  1  0  0  0  0
 17 18  2  0  0  0  0
 17 19  1  0  0  0  0
 19 20  1  0  0  0  0
 20 21  1  0  0  0  0
 20 23  2  0  0  0  0
 21 22  1  0  0  0  0
 21 26  2  0  0  0  0
 23 24  1  0  0  0  0
 24 25  2  0  0  0  0
 25 26  1  0  0  0  0
 25 27  1  0  0  0  0
 27 28  1  0  0  0  0
 27 33  1  0  0  0  0
 28 29  2  0  0  0  0
 28 30  1  0  0  0  0
 30 31  2  0  0  0  0
 31 32  1  0  0  0  0
 32 33  2  0  0  0  0
M  END
> <DRUGBANK_ID>
DB08143

> <DRUG_GROUPS>
experimental

> <GENERIC_NAME>
5-CHLORO-THIOPHENE-2-CARBOXYLIC ACID ((3S,4S)-4-FLUORO- 1-{[2-FLUORO-4-(2-OXO-2H-PYRIDIN-1-YL)-PHENYLCARBAMOYL]-METHYL}-PYRROLIDIN-3-YL)-AMIDE

> <CHEMICAL_FORMULA>
C22H19ClF2N4O3S

> <MOLECULAR_WEIGHT>
492.926

> <EXACT_MASS>
492.083445301

> <IUPAC_NAME>
5-chloro-N-[(3S,4S)-4-fluoro-1-({[2-fluoro-4-(2-oxo-1,2-dihydropyridin-1-yl)phenyl]carbamoyl}methyl)pyrrolidin-3-yl]thiophene-2-carboxamide

> <IUPAC_TRADITIONAL_NAME>
5-chloro-N-[(3S,4S)-4-fluoro-1-({[2-fluoro-4-(2-oxopyridin-1-yl)phenyl]carbamoyl}methyl)pyrrolidin-3-yl]thiophene-2-carboxamide

> <INCHI_IDENTIFIER>
InChI=1S/C22H19ClF2N4O3S/c23-19-7-6-18(33-19)22(32)27-17-11-28(10-15(17)25)12-20(30)26-16-5-4-13(9-14(16)24)29-8-2-1-3-21(29)31/h1-9,15,17H,10-12H2,(H,26,30)(H,27,32)/t15-,17-/m0/s1

> <INCHI_KEY>
InChIKey=SXIYSYYSKHUTQQ-RDJZCZTQSA-N

> <SMILES>
[H][C@]1(F)CN(CC(=O)NC2=CC=C(C=C2F)N2C=CC=CC2=O)C[C@]1([H])NC(=O)C1=CC=C(Cl)S1

> <JCHEM_ACCEPTOR_COUNT>
4

> <JCHEM_DONOR_COUNT>
2

> <JCHEM_ACIDIC_PKA>
11.57

> <JCHEM_BASIC_PKA>
3.72

> <JCHEM_PHYSIOLOGICAL_CHARGE>
0

> <ALOGPS_LOGP>
3.37

> <JCHEM_LOGP>
2.88

> <ALOGPS_LOGS>
-5.5

> <JCHEM_POLARIZABILITY>
46.43

> <JCHEM_POLAR_SURFACE_AREA>
81.75

> <JCHEM_REFRACTIVITY>
122.12

> <JCHEM_ROTATABLE_BOND_COUNT>
6

> <ALOGPS_SOLUBILITY>
1.39e-03 g/l __ 

$$$$
