MB9
  Mrv0541 02241213542D          

 24 27  0  0  0  0            999 V2000
    0.5631    0.7907    0.0000 C    0  0  0  0  0  0  0  0  0  0  0  0
    1.2853    1.1895    0.0000 C    0  0  0  0  0  0  0  0  0  0  0  0
    1.9918    0.7635    0.0000 N    0  0  0  0  0  0  0  0  0  0  0  0
    1.9761   -0.0614    0.0000 C    0  0  0  0  0  0  0  0  0  0  0  0
    1.2539   -0.4602    0.0000 C    0  0  0  0  0  0  0  0  0  0  0  0
    0.5474   -0.0342    0.0000 C    0  0  0  0  0  0  0  0  0  0  0  0
    0.5318   -0.8591    0.0000 N    0  0  0  0  0  0  0  0  0  0  0  0
   -0.1904   -1.2579    0.0000 C    0  0  0  0  0  0  0  0  0  0  0  0
   -0.2061   -2.0827    0.0000 O    0  0  0  0  0  0  0  0  0  0  0  0
   -0.8969   -0.8319    0.0000 C    0  0  0  0  0  0  0  0  0  0  0  0
   -1.6863   -1.0718    0.0000 N    0  0  0  0  0  0  0  0  0  0  0  0
   -1.9561   -1.8515    0.0000 C    0  0  0  0  0  0  0  0  0  0  0  0
   -2.1584   -0.3953    0.0000 C    0  0  0  0  0  0  0  0  0  0  0  0
   -2.9771   -0.2935    0.0000 C    0  0  0  0  0  0  0  0  0  0  0  0
   -3.2982    0.4665    0.0000 C    0  0  0  0  0  0  0  0  0  0  0  0
   -4.1169    0.5683    0.0000 Cl   0  0  0  0  0  0  0  0  0  0  0  0
   -2.8007    1.1246    0.0000 C    0  0  0  0  0  0  0  0  0  0  0  0
   -1.9820    1.0227    0.0000 C    0  0  0  0  0  0  0  0  0  0  0  0
   -1.6609    0.2628    0.0000 C    0  0  0  0  0  0  0  0  0  0  0  0
   -0.8812   -0.0070    0.0000 C    0  0  0  0  0  0  0  0  0  0  0  0
   -0.1590    0.3918    0.0000 C    0  0  1  0  0  0  0  0  0  0  0  0
   -0.1434    1.2167    0.0000 C    0  0  0  0  0  0  0  0  0  0  0  0
   -0.1277    2.0415    0.0000 N    0  0  0  0  0  0  0  0  0  0  0  0
    0.0511    0.9366    0.0000 H    0  0  0  0  0  0  0  0  0  0  0  0
  1  2  1  0  0  0  0
  1  6  1  0  0  0  0
  2  3  1  0  0  0  0
  3  4  1  0  0  0  0
  4  5  1  0  0  0  0
  5  6  1  0  0  0  0
  6  7  1  0  0  0  0
  6 21  1  0  0  0  0
  7  8  1  0  0  0  0
  8  9  2  0  0  0  0
  8 10  1  0  0  0  0
 10 11  1  0  0  0  0
 10 20  2  0  0  0  0
 11 12  1  0  0  0  0
 11 13  1  0  0  0  0
 13 14  2  0  0  0  0
 13 19  1  0  0  0  0
 14 15  1  0  0  0  0
 15 16  1  0  0  0  0
 15 17  2  0  0  0  0
 17 18  1  0  0  0  0
 18 19  2  0  0  0  0
 19 20  1  0  0  0  0
 20 21  1  0  0  0  0
 21 22  1  1  0  0  0
 21 24  1  6  0  0  0
 22 23  3  0  0  0  0
M  END
> <DRUGBANK_ID>
DB08166

> <DRUG_GROUPS>
experimental

> <GENERIC_NAME>
(4R)-7-chloro-9-methyl-1-oxo-1,2,4,9-tetrahydrospiro[beta-carboline-3,4'-piperidine]-4-carbonitrile

> <CHEMICAL_FORMULA>
C17H17ClN4O

> <MOLECULAR_WEIGHT>
328.796

> <EXACT_MASS>
328.109088893

> <IUPAC_NAME>
(1'R)-7'-chloro-5'-methyl-4'-oxo-1',3',4',5'-tetrahydrospiro[piperidine-4,2'-pyrido[3,4-b]indole]-1'-carbonitrile

> <IUPAC_TRADITIONAL_NAME>
(1'R)-7'-chloro-5'-methyl-4'-oxo-1',3'-dihydrospiro[piperidine-4,2'-pyrido[3,4-b]indole]-1'-carbonitrile

> <INCHI_IDENTIFIER>
InChI=1S/C17H17ClN4O/c1-22-13-8-10(18)2-3-11(13)14-12(9-19)17(4-6-20-7-5-17)21-16(23)15(14)22/h2-3,8,12,20H,4-7H2,1H3,(H,21,23)/t12-/m1/s1

> <INCHI_KEY>
InChIKey=LPFQFJAOMCGYCP-GFCCVEGCSA-N

> <SMILES>
[H][C@@]1(C#N)C2=C(N(C)C3=CC(Cl)=CC=C23)C(=O)NC11CCNCC1

> <JCHEM_ACCEPTOR_COUNT>
3

> <JCHEM_DONOR_COUNT>
2

> <JCHEM_ACIDIC_PKA>
11.84

> <JCHEM_BASIC_PKA>
9.93

> <JCHEM_PHYSIOLOGICAL_CHARGE>
1

> <ALOGPS_LOGP>
1.32

> <JCHEM_LOGP>
0.78

> <ALOGPS_LOGS>
-3.4

> <JCHEM_POLARIZABILITY>
34.45

> <JCHEM_POLAR_SURFACE_AREA>
69.85

> <JCHEM_REFRACTIVITY>
89.12

> <JCHEM_ROTATABLE_BOND_COUNT>
0

> <ALOGPS_SOLUBILITY>
1.41e-01 g/l __ 

$$$$
