NC3
  Mrv0541 02241213582D          

 14 14  0  0  0  0            999 V2000
   -1.1332   -0.1463    0.0000 C   0  0  0  0  0  0  0  0  0  0  0  0
   -0.4187   -0.5588    0.0000 N   0  0  0  0  0  0  0  0  0  0  0  0
    0.2958   -0.1463    0.0000 C   0  0  0  0  0  0  0  0  0  0  0  0
    1.0102   -0.5588    0.0000 N   0  0  0  0  0  0  0  0  0  0  0  0
    1.7247   -0.1463    0.0000 C   0  0  0  0  0  0  0  0  0  0  0  0
    2.4392   -0.5588    0.0000 C   0  0  0  0  0  0  0  0  0  0  0  0
    3.1537   -0.1463    0.0000 O   0  0  0  0  0  0  0  0  0  0  0  0
    0.2958    0.6787    0.0000 O   0  0  0  0  0  0  0  0  0  0  0  0
    2.4392   -1.3838    0.0000 O   0  0  0  0  0  0  0  0  0  0  0  0
   -1.8476   -0.5588    0.0000 C   0  0  0  0  0  0  0  0  0  0  0  0
   -2.5621   -0.1463    0.0000 C   0  0  0  0  0  0  0  0  0  0  0  0
   -2.5621    0.6787    0.0000 C   0  0  0  0  0  0  0  0  0  0  0  0
   -1.8476    1.0912    0.0000 C   0  0  0  0  0  0  0  0  0  0  0  0
   -1.1332    0.6787    0.0000 C   0  0  0  0  0  0  0  0  0  0  0  0
  1  2  1  0  0  0  0
  1 10  1  0  0  0  0
  1 14  1  0  0  0  0
  2  3  1  0  0  0  0
  3  4  1  0  0  0  0
  3  8  2  0  0  0  0
  4  5  1  0  0  0  0
  5  6  1  0  0  0  0
  6  7  1  0  0  0  0
  6  9  2  0  0  0  0
 10 11  1  0  0  0  0
 11 12  1  0  0  0  0
 12 13  1  0  0  0  0
 13 14  1  0  0  0  0
M  END
> <DRUGBANK_ID>
DB08256

> <DRUG_GROUPS>
experimental

> <GENERIC_NAME>
N-[(CYCLOHEXYLAMINO)CARBONYL]GLYCINE

> <CHEMICAL_FORMULA>
C9H16N2O3

> <MOLECULAR_WEIGHT>
200.2349

> <EXACT_MASS>
200.116092388

> <IUPAC_NAME>
2-[(cyclohexylcarbamoyl)amino]acetic acid

> <IUPAC_TRADITIONAL_NAME>
[(cyclohexylcarbamoyl)amino]acetic acid

> <INCHI_IDENTIFIER>
InChI=1S/C9H16N2O3/c12-8(13)6-10-9(14)11-7-4-2-1-3-5-7/h7H,1-6H2,(H,12,13)(H2,10,11,14)

> <INCHI_KEY>
InChIKey=NVORCMBCUHQRDL-UHFFFAOYSA-N

> <SMILES>
OC(=O)CNC(=O)NC1CCCCC1

> <JCHEM_ACCEPTOR_COUNT>
3

> <JCHEM_DONOR_COUNT>
3

> <JCHEM_ACIDIC_PKA>
4.14

> <JCHEM_BASIC_PKA>
-1.6

> <JCHEM_PHYSIOLOGICAL_CHARGE>
-1

> <ALOGPS_LOGP>
0.79

> <JCHEM_LOGP>
0.36

> <ALOGPS_LOGS>
-2

> <JCHEM_POLARIZABILITY>
20.98

> <JCHEM_POLAR_SURFACE_AREA>
78.43

> <JCHEM_REFRACTIVITY>
50.03

> <JCHEM_ROTATABLE_BOND_COUNT>
3

> <ALOGPS_SOLUBILITY>
1.86e+00 g/l __ 

$$$$
