STC
  Mrv0541 02241214112D          

 19 20  0  0  0  0            999 V2000
    0.4600    0.5956    0.0000 N    0  0  0  0  0  0  0  0  0  0  0  0
   -0.2545    1.0081    0.0000 C    0  0  0  0  0  0  0  0  0  0  0  0
   -0.9690    0.5956    0.0000 C    0  0  0  0  0  0  0  0  0  0  0  0
   -0.2545    1.8331    0.0000 C    0  0  0  0  0  0  0  0  0  0  0  0
   -1.6835    1.0081    0.0000 C    0  0  0  0  0  0  0  0  0  0  0  0
   -0.9690    2.2456    0.0000 C    0  0  0  0  0  0  0  0  0  0  0  0
   -1.6835    1.8331    0.0000 C    0  0  0  0  0  0  0  0  0  0  0  0
   -2.3979    2.2456    0.0000 Cl   0  0  0  0  0  0  0  0  0  0  0  0
    0.4600   -0.2294    0.0000 S    0  0  0  0  0  0  0  0  0  0  0  0
    0.4600   -1.0544    0.0000 C    0  0  0  0  0  0  0  0  0  0  0  0
   -0.3650   -0.2294    0.0000 O    0  0  0  0  0  0  0  0  0  0  0  0
    1.2850   -0.2294    0.0000 O    0  0  0  0  0  0  0  0  0  0  0  0
    1.1274   -1.5393    0.0000 C    0  0  0  0  0  0  0  0  0  0  0  0
   -0.2075   -1.5393    0.0000 C    0  0  0  0  0  0  0  0  0  0  0  0
    0.8725   -2.3240    0.0000 S    0  0  0  0  0  0  0  0  0  0  0  0
    1.9120   -1.2844    0.0000 C    0  0  0  0  0  0  0  0  0  0  0  0
    0.0475   -2.3240    0.0000 C    0  0  0  0  0  0  0  0  0  0  0  0
    2.0835   -0.4774    0.0000 O    0  0  0  0  0  0  0  0  0  0  0  0
    2.5251   -1.8364    0.0000 O    0  0  0  0  0  0  0  0  0  0  0  0
  1  2  1  0  0  0  0
  1  9  1  0  0  0  0
  2  3  2  0  0  0  0
  2  4  1  0  0  0  0
  3  5  1  0  0  0  0
  4  6  2  0  0  0  0
  5  7  2  0  0  0  0
  6  7  1  0  0  0  0
  7  8  1  0  0  0  0
  9 10  1  0  0  0  0
  9 11  2  0  0  0  0
  9 12  2  0  0  0  0
 10 13  2  0  0  0  0
 10 14  1  0  0  0  0
 13 15  1  0  0  0  0
 13 16  1  0  0  0  0
 14 17  2  0  0  0  0
 15 17  1  0  0  0  0
 16 18  1  0  0  0  0
 16 19  2  0  0  0  0
M  END
> <DRUGBANK_ID>
DB08573

> <DRUG_GROUPS>
experimental

> <GENERIC_NAME>
3-[(4-CHLOROANILINO)SULFONYL]THIOPHENE-2-CARBOXYLIC ACID

> <CHEMICAL_FORMULA>
C11H8ClNO4S2

> <MOLECULAR_WEIGHT>
317.769

> <EXACT_MASS>
316.958326836

> <IUPAC_NAME>
3-[(4-chlorophenyl)sulfamoyl]thiophene-2-carboxylic acid

> <IUPAC_TRADITIONAL_NAME>
3-[(4-chlorophenyl)sulfamoyl]thiophene-2-carboxylic acid

> <INCHI_IDENTIFIER>
InChI=1S/C11H8ClNO4S2/c12-7-1-3-8(4-2-7)13-19(16,17)9-5-6-18-10(9)11(14)15/h1-6,13H,(H,14,15)

> <INCHI_KEY>
InChIKey=YRWKEEDITQJPCZ-UHFFFAOYSA-N

> <SMILES>
OC(=O)C1=C(C=CS1)S(=O)(=O)NC1=CC=C(Cl)C=C1

> <JCHEM_ACCEPTOR_COUNT>
4

> <JCHEM_DONOR_COUNT>
2

> <JCHEM_ACIDIC_PKA>
3.06

> <JCHEM_PHYSIOLOGICAL_CHARGE>
-1

> <ALOGPS_LOGP>
3

> <JCHEM_LOGP>
2.64

> <ALOGPS_LOGS>
-4.2

> <JCHEM_POLARIZABILITY>
28.3

> <JCHEM_POLAR_SURFACE_AREA>
83.47

> <JCHEM_REFRACTIVITY>
71.84

> <JCHEM_ROTATABLE_BOND_COUNT>
3

> <ALOGPS_SOLUBILITY>
1.99e-02 g/l __ 

$$$$
