M25
  Mrv0541 02241213542D          

 16 16  0  0  0  0            999 V2000
   -1.3253   -1.4585    0.0000 C   0  0  0  0  0  0  0  0  0  0  0  0
   -0.6108   -1.8710    0.0000 C   0  0  0  0  0  0  0  0  0  0  0  0
    0.1037   -1.4585    0.0000 C   0  0  0  0  0  0  0  0  0  0  0  0
    0.1037   -0.6335    0.0000 C   0  0  0  0  0  0  0  0  0  0  0  0
   -0.6108   -0.2210    0.0000 C   0  0  0  0  0  0  0  0  0  0  0  0
   -1.3253   -0.6335    0.0000 C   0  0  0  0  0  0  0  0  0  0  0  0
   -2.0398   -1.8710    0.0000 S   0  0  0  0  0  0  0  0  0  0  0  0
   -2.7542   -2.2835    0.0000 O   0  0  0  0  0  0  0  0  0  0  0  0
   -1.6273   -2.5855    0.0000 O   0  0  0  0  0  0  0  0  0  0  0  0
   -2.4523   -1.1566    0.0000 N   0  0  0  0  0  0  0  0  0  0  0  0
    0.8181   -0.2210    0.0000 C   0  0  0  0  0  0  0  0  0  0  0  0
    1.5326   -0.6335    0.0000 C   0  0  0  0  0  0  0  0  0  0  0  0
    2.2471   -0.2210    0.0000 N   0  0  0  0  0  0  0  0  0  0  0  0
    2.9615   -0.6335    0.0000 C   0  0  0  0  0  0  0  0  0  0  0  0
    3.6760   -0.2210    0.0000 C   0  0  0  0  0  0  0  0  0  0  0  0
    2.9615   -1.4585    0.0000 O   0  0  0  0  0  0  0  0  0  0  0  0
  1  7  1  0  0  0  0
  1  6  2  0  0  0  0
  1  2  1  0  0  0  0
  2  3  2  0  0  0  0
  3  4  1  0  0  0  0
  4  5  2  0  0  0  0
  4 11  1  0  0  0  0
  5  6  1  0  0  0  0
  7  8  2  0  0  0  0
  7  9  2  0  0  0  0
  7 10  1  0  0  0  0
 11 12  1  0  0  0  0
 12 13  1  0  0  0  0
 13 14  1  0  0  0  0
 14 16  2  0  0  0  0
 14 15  1  0  0  0  0
M  END
> <DRUGBANK_ID>
DB08155

> <DRUG_GROUPS>
experimental

> <GENERIC_NAME>
N-{2-[4-(AMINOSULFONYL)PHENYL]ETHYL}ACETAMIDE

> <CHEMICAL_FORMULA>
C10H14N2O3S

> <MOLECULAR_WEIGHT>
242.295

> <EXACT_MASS>
242.072513014

> <IUPAC_NAME>
N-[2-(4-sulfamoylphenyl)ethyl]acetamide

> <IUPAC_TRADITIONAL_NAME>
N-[2-(4-sulfamoylphenyl)ethyl]acetamide

> <INCHI_IDENTIFIER>
InChI=1S/C10H14N2O3S/c1-8(13)12-7-6-9-2-4-10(5-3-9)16(11,14)15/h2-5H,6-7H2,1H3,(H,12,13)(H2,11,14,15)

> <INCHI_KEY>
InChIKey=IIMGUEXQORZTID-UHFFFAOYSA-N

> <SMILES>
CC(=O)NCCC1=CC=C(C=C1)S(N)(=O)=O

> <JCHEM_ACCEPTOR_COUNT>
3

> <JCHEM_DONOR_COUNT>
2

> <JCHEM_ACIDIC_PKA>
10.22

> <JCHEM_BASIC_PKA>
-0.94

> <JCHEM_PHYSIOLOGICAL_CHARGE>
0

> <ALOGPS_LOGP>
0.13

> <JCHEM_LOGP>
-0.19

> <ALOGPS_LOGS>
-2.3

> <JCHEM_POLARIZABILITY>
24.64

> <JCHEM_POLAR_SURFACE_AREA>
89.26

> <JCHEM_REFRACTIVITY>
60.89

> <JCHEM_ROTATABLE_BOND_COUNT>
4

> <ALOGPS_SOLUBILITY>
1.29e+00 g/l __ 

$$$$
