K01
  Mrv0541 02241213482D          

 24 26  0  0  0  0            999 V2000
   -1.0078   -1.7415    0.0000 O   0  0  0  0  0  0  0  0  0  0  0  0
   -1.4203   -1.0271    0.0000 C   0  0  0  0  0  0  0  0  0  0  0  0
   -2.2453   -1.0271    0.0000 C   0  0  0  0  0  0  0  0  0  0  0  0
   -2.7302   -0.3596    0.0000 S   0  0  0  0  0  0  0  0  0  0  0  0
   -3.5148   -0.6146    0.0000 C   0  0  0  0  0  0  0  0  0  0  0  0
   -3.5148   -1.4396    0.0000 C   0  0  0  0  0  0  0  0  0  0  0  0
   -2.7302   -1.6945    0.0000 C   0  0  0  0  0  0  0  0  0  0  0  0
   -1.0078   -0.3126    0.0000 N   0  0  0  0  0  0  0  0  0  0  0  0
   -0.1828   -0.3126    0.0000 C   0  0  0  0  0  0  0  0  0  0  0  0
    0.3021   -0.9800    0.0000 S   0  0  0  0  0  0  0  0  0  0  0  0
    1.0868   -0.7251    0.0000 C   0  0  0  0  0  0  0  0  0  0  0  0
    1.0868    0.0999    0.0000 C   0  0  0  0  0  0  0  0  0  0  0  0
    1.8012    0.5124    0.0000 C   0  0  0  0  0  0  0  0  0  0  0  0
    2.5157    0.0999    0.0000 C   0  0  0  0  0  0  0  0  0  0  0  0
    2.5157   -0.7251    0.0000 C   0  0  0  0  0  0  0  0  0  0  0  0
    1.8012   -1.1376    0.0000 C   0  0  0  0  0  0  0  0  0  0  0  0
    0.3021    0.3549    0.0000 C   0  0  0  0  0  0  0  0  0  0  0  0
    0.0472    1.1395    0.0000 C   0  0  0  0  0  0  0  0  0  0  0  0
    0.5992    1.7526    0.0000 O   0  0  0  0  0  0  0  0  0  0  0  0
   -0.7598    1.3110    0.0000 N   0  0  0  0  0  0  0  0  0  0  0  0
   -1.0147    2.0956    0.0000 C   0  0  0  0  0  0  0  0  0  0  0  0
   -0.4627    2.7087    0.0000 C   0  0  0  0  0  0  0  0  0  0  0  0
   -1.3118    0.6979    0.0000 C   0  0  0  0  0  0  0  0  0  0  0  0
   -2.1188    0.8694    0.0000 C   0  0  0  0  0  0  0  0  0  0  0  0
  1  2  2  0  0  0  0
  2  3  1  0  0  0  0
  2  8  1  0  0  0  0
  3  7  2  0  0  0  0
  3  4  1  0  0  0  0
  4  5  1  0  0  0  0
  5  6  2  0  0  0  0
  6  7  1  0  0  0  0
  8  9  1  0  0  0  0
  9 17  2  0  0  0  0
  9 10  1  0  0  0  0
 10 11  1  0  0  0  0
 11 12  2  0  0  0  0
 11 16  1  0  0  0  0
 12 17  1  0  0  0  0
 12 13  1  0  0  0  0
 13 14  1  0  0  0  0
 14 15  1  0  0  0  0
 15 16  1  0  0  0  0
 17 18  1  0  0  0  0
 18 20  1  0  0  0  0
 18 19  2  0  0  0  0
 20 23  1  0  0  0  0
 20 21  1  0  0  0  0
 21 22  1  0  0  0  0
 23 24  1  0  0  0  0
M  END
> <DRUGBANK_ID>
DB08032

> <DRUG_GROUPS>
experimental

> <GENERIC_NAME>
N,N-DIETHYL-2-[(2-THIENYLCARBONYL)AMINO]-4,5,6,7-TETRAHYDRO-1-BENZOTHIOPHENE-3-CARBOXAMIDE

> <CHEMICAL_FORMULA>
C18H22N2O2S2

> <MOLECULAR_WEIGHT>
362.509

> <EXACT_MASS>
362.112269338

> <IUPAC_NAME>
3-N,3-N-diethyl-2-C-thiophene-2-4,5,6,7-tetrahydro-1-benzothiophene-2,3-diamido

> <IUPAC_TRADITIONAL_NAME>
3-N,3-N-diethyl-2-C-thiophene-2-4,5,6,7-tetrahydro-1-benzothiophene-2,3-diamido

> <INCHI_IDENTIFIER>
InChI=1S/C18H22N2O2S2/c1-3-20(4-2)18(22)15-12-8-5-6-9-13(12)24-17(15)19-16(21)14-10-7-11-23-14/h7,10-11H,3-6,8-9H2,1-2H3,(H,19,21)

> <INCHI_KEY>
InChIKey=NZTHBWHANVWSRX-UHFFFAOYSA-N

> <SMILES>
CCN(CC)C(=O)C1=C(NC(=O)C2=CC=CS2)SC2=C1CCCC2

> <JCHEM_ACCEPTOR_COUNT>
2

> <JCHEM_DONOR_COUNT>
1

> <JCHEM_ACIDIC_PKA>
7.9

> <JCHEM_BASIC_PKA>
-0.44

> <JCHEM_PHYSIOLOGICAL_CHARGE>
0

> <ALOGPS_LOGP>
3.9

> <JCHEM_LOGP>
5.17

> <ALOGPS_LOGS>
-3.9

> <JCHEM_POLARIZABILITY>
39.35

> <JCHEM_POLAR_SURFACE_AREA>
49.41

> <JCHEM_REFRACTIVITY>
100.54

> <JCHEM_ROTATABLE_BOND_COUNT>
5

> <ALOGPS_SOLUBILITY>
4.96e-02 g/l __ 

$$$$
