 
  Mrv0541 05281313422D          
 
 24 23  0  0  0  0            999 V2000
    3.7646  -11.2520    0.0000 C   0  0  0  0  0  0  0  0  0  0  0  0
    4.4757  -11.6703    0.0000 O   0  0  0  0  0  0  0  0  0  0  0  0
    3.0535  -11.6703    0.0000 C   0  0  0  0  0  0  0  0  0  0  0  0
    5.1868  -11.2520    0.0000 C   0  0  0  0  0  0  0  0  0  0  0  0
    5.8979  -11.6703    0.0000 C   0  0  0  0  0  0  0  0  0  0  0  0
    5.1868  -10.4155    0.0000 O   0  0  0  0  0  0  0  0  0  0  0  0
    6.6090  -11.2520    0.0000 C   0  0  0  0  0  0  0  0  0  0  0  0
    7.3201  -11.6703    0.0000 C   0  0  0  0  0  0  0  0  0  0  0  0
    8.0312  -11.2520    0.0000 C   0  0  0  0  0  0  0  0  0  0  0  0
    8.8678  -11.2520    0.0000 C   0  0  0  0  0  0  0  0  0  0  0  0
    9.5789  -11.6703    0.0000 C   0  0  0  0  0  0  0  0  0  0  0  0
   10.2900  -11.2520    0.0000 C   0  0  0  0  0  0  0  0  0  0  0  0
   11.1266  -11.2520    0.0000 C   0  0  0  0  0  0  0  0  0  0  0  0
   11.8377  -11.6703    0.0000 C   0  0  0  0  0  0  0  0  0  0  0  0
   12.5487  -11.2520    0.0000 C   0  0  0  0  0  0  0  0  0  0  0  0
   13.3853  -11.2520    0.0000 C   0  0  0  0  0  0  0  0  0  0  0  0
   14.0964  -11.6703    0.0000 C   0  0  0  0  0  0  0  0  0  0  0  0
   14.8075  -11.2520    0.0000 C   0  0  0  0  0  0  0  0  0  0  0  0
   15.6441  -11.2520    0.0000 C   0  0  0  0  0  0  0  0  0  0  0  0
   16.3552  -11.6703    0.0000 C   0  0  0  0  0  0  0  0  0  0  0  0
   17.0663  -11.2520    0.0000 C   0  0  0  0  0  0  0  0  0  0  0  0
   17.9029  -11.2520    0.0000 C   0  0  0  0  0  0  0  0  0  0  0  0
   18.6140  -11.6703    0.0000 C   0  0  0  0  0  0  0  0  0  0  0  0
   19.3251  -11.2520    0.0000 C   0  0  0  0  0  0  0  0  0  0  0  0
  1  2  1  0  0  0  0
  1  3  1  0  0  0  0
  2  4  1  0  0  0  0
  4  5  1  0  0  0  0
  4  6  2  0  0  0  0
  5  7  1  0  0  0  0
  7  8  1  0  0  0  0
  8  9  1  0  0  0  0
  9 10  2  0  0  0  0
 10 11  1  0  0  0  0
 11 12  1  0  0  0  0
 12 13  2  0  0  0  0
 13 14  1  0  0  0  0
 14 15  1  0  0  0  0
 15 16  2  0  0  0  0
 16 17  1  0  0  0  0
 17 18  1  0  0  0  0
 18 19  2  0  0  0  0
 19 20  1  0  0  0  0
 20 21  1  0  0  0  0
 21 22  2  0  0  0  0
 22 23  1  0  0  0  0
 23 24  1  0  0  0  0
M  END
> <DRUGBANK_ID>
DB08887

> <DRUG_GROUPS>
approved; nutraceutical

> <GENERIC_NAME>
Icosapent ethyl 

> <SYNONYMS>
Ethyl Eicosapentaenoate; Ethyl icosapentate ; Ethyl-Eicosapentaenoic Acid; Ethyl-EPA

> <BRANDS>
Epadel; Vascepa 

> <CHEMICAL_FORMULA>
C22H34O2

> <MOLECULAR_WEIGHT>
330.5042

> <EXACT_MASS>
330.255880332

> <IUPAC_NAME>
ethyl (5Z,8Z,11Z,14Z,17Z)-icosa-5,8,11,14,17-pentaenoate

> <IUPAC_TRADITIONAL_NAME>
ethyl eicosapentaenoate

> <INCHI_IDENTIFIER>
InChI=1S/C22H34O2/c1-3-5-6-7-8-9-10-11-12-13-14-15-16-17-18-19-20-21-22(23)24-4-2/h5-6,8-9,11-12,14-15,17-18H,3-4,7,10,13,16,19-21H2,1-2H3/b6-5-,9-8-,12-11-,15-14-,18-17-

> <INCHI_KEY>
InChIKey=SSQPWTVBQMWLSZ-AAQCHOMXSA-N

> <SMILES>
CCOC(=O)CCC\C=C/C\C=C/C\C=C/C\C=C/C\C=C/CC

> <JCHEM_ACCEPTOR_COUNT>
1

> <JCHEM_DONOR_COUNT>
0

> <JCHEM_BASIC_PKA>
-7

> <JCHEM_PHYSIOLOGICAL_CHARGE>
0

> <ALOGPS_LOGP>
6.8

> <JCHEM_LOGP>
6.73

> <ALOGPS_LOGS>
-6.5

> <JCHEM_POLARIZABILITY>
40.4

> <JCHEM_POLAR_SURFACE_AREA>
26.3

> <JCHEM_REFRACTIVITY>
110.59

> <JCHEM_ROTATABLE_BOND_COUNT>
15

> <ALOGPS_SOLUBILITY>
9.83e-05 g/l __ 

$$$$
