XP1
  Mrv0541 02241214172D          

 12 12  0  0  0  0            999 V2000
   -8.2529  -21.5312    0.0000 C   0  0  0  0  0  0  0  0  0  0  0  0
   -8.2529  -22.3562    0.0000 N   0  0  0  0  0  0  0  0  0  0  0  0
   -7.5385  -22.7687    0.0000 C   0  0  0  0  0  0  0  0  0  0  0  0
   -8.9674  -22.7687    0.0000 C   0  0  0  0  0  0  0  0  0  0  0  0
   -8.9674  -23.5937    0.0000 C   0  0  0  0  0  0  0  0  0  0  0  0
   -9.6819  -24.0062    0.0000 C   0  0  0  0  0  0  0  0  0  0  0  0
  -10.3963  -23.5937    0.0000 C   0  0  0  0  0  0  0  0  0  0  0  0
  -11.1108  -24.0062    0.0000 C   0  0  0  0  0  0  0  0  0  0  0  0
  -11.1108  -24.8312    0.0000 O   0  0  0  0  0  0  0  0  0  0  0  0
  -10.3963  -22.7687    0.0000 C   0  0  0  0  0  0  0  0  0  0  0  0
   -9.6819  -22.3562    0.0000 C   0  0  0  0  0  0  0  0  0  0  0  0
  -11.8253  -23.5937    0.0000 O   0  0  0  0  0  0  0  0  0  0  0  0
  1  2  1  0  0  0  0
  2  3  1  0  0  0  0
  2  4  1  0  0  0  0
  4  5  1  0  0  0  0
  4 11  2  0  0  0  0
  5  6  2  0  0  0  0
  6  7  1  0  0  0  0
  7  8  1  0  0  0  0
  7 10  2  0  0  0  0
  8  9  2  0  0  0  0
  8 12  1  0  0  0  0
 10 11  1  0  0  0  0
M  END
> <DRUGBANK_ID>
DB08748

> <DRUG_GROUPS>
experimental

> <GENERIC_NAME>
4-(DIMETHYLAMINO)BENZOIC ACID

> <CHEMICAL_FORMULA>
C9H11NO2

> <MOLECULAR_WEIGHT>
165.1891

> <EXACT_MASS>
165.078978601

> <IUPAC_NAME>
4-(dimethylamino)benzoic acid

> <IUPAC_TRADITIONAL_NAME>
4-(dimethylamino)benzoic acid

> <INCHI_IDENTIFIER>
InChI=1S/C9H11NO2/c1-10(2)8-5-3-7(4-6-8)9(11)12/h3-6H,1-2H3,(H,11,12)

> <INCHI_KEY>
InChIKey=YDIYEOMDOWUDTJ-UHFFFAOYSA-N

> <SMILES>
CN(C)C1=CC=C(C=C1)C(O)=O

> <JCHEM_ACCEPTOR_COUNT>
3

> <JCHEM_DONOR_COUNT>
1

> <JCHEM_ACIDIC_PKA>
4.76

> <JCHEM_BASIC_PKA>
2.89

> <JCHEM_PHYSIOLOGICAL_CHARGE>
-1

> <ALOGPS_LOGP>
1.51

> <JCHEM_LOGP>
1.6

> <ALOGPS_LOGS>
-1.3

> <JCHEM_POLARIZABILITY>
17.61

> <JCHEM_POLAR_SURFACE_AREA>
40.54

> <JCHEM_REFRACTIVITY>
47.74

> <JCHEM_ROTATABLE_BOND_COUNT>
2

> <ALOGPS_SOLUBILITY>
8.46e+00 g/l __ 

$$$$
