STF
  Mrv0541 02241214112D          

 19 20  0  0  0  0            999 V2000
   -0.9464   -0.6357    0.0000 C   0  0  1  0  0  0  0  0  0  0  0  0
   -0.2789   -1.1206    0.0000 S   0  0  0  0  0  0  0  0  0  0  0  0
   -0.5339   -1.9053    0.0000 C   0  0  0  0  0  0  0  0  0  0  0  0
   -1.3589   -1.9053    0.0000 N   0  0  0  0  0  0  0  0  0  0  0  0
   -1.6138   -1.1206    0.0000 C   0  0  0  0  0  0  0  0  0  0  0  0
   -2.3984   -0.8657    0.0000 O   0  0  0  0  0  0  0  0  0  0  0  0
   -0.0489   -2.5727    0.0000 S   0  0  0  0  0  0  0  0  0  0  0  0
   -0.9464    0.1893    0.0000 C   0  0  0  0  0  0  0  0  0  0  0  0
   -0.2319    0.6018    0.0000 C   0  0  0  0  0  0  0  0  0  0  0  0
   -0.2319    1.4268    0.0000 C   0  0  0  0  0  0  0  0  0  0  0  0
    0.4826    1.8393    0.0000 C   0  0  0  0  0  0  0  0  0  0  0  0
    1.1970    1.4268    0.0000 C   0  0  0  0  0  0  0  0  0  0  0  0
    1.1970    0.6018    0.0000 C   0  0  0  0  0  0  0  0  0  0  0  0
    0.4826    0.1893    0.0000 C   0  0  0  0  0  0  0  0  0  0  0  0
    1.9115    1.8393    0.0000 C   0  0  0  0  0  0  0  0  0  0  0  0
    2.6260    2.2518    0.0000 F   0  0  0  0  0  0  0  0  0  0  0  0
    2.3240    1.1248    0.0000 F   0  0  0  0  0  0  0  0  0  0  0  0
    1.4990    2.5537    0.0000 F   0  0  0  0  0  0  0  0  0  0  0  0
   -0.4261   -0.3706    0.0000 H   0  0  0  0  0  0  0  0  0  0  0  0
  1  2  1  0  0  0  0
  1  5  1  0  0  0  0
  1  8  1  1  0  0  0
  1 19  1  6  0  0  0
  2  3  1  0  0  0  0
  3  4  2  0  0  0  0
  3  7  1  0  0  0  0
  4  5  1  0  0  0  0
  5  6  2  0  0  0  0
  8  9  1  0  0  0  0
  9 10  2  0  0  0  0
  9 14  1  0  0  0  0
 10 11  1  0  0  0  0
 11 12  2  0  0  0  0
 12 13  1  0  0  0  0
 12 15  1  0  0  0  0
 13 14  2  0  0  0  0
 15 16  1  0  0  0  0
 15 17  1  0  0  0  0
 15 18  1  0  0  0  0
M  END
> <DRUGBANK_ID>
DB08574

> <DRUG_GROUPS>
experimental

> <GENERIC_NAME>
(5R)-2-SULFANYL-5-[4-(TRIFLUOROMETHYL)BENZYL]-1,3-THIAZOL-4-ONE

> <CHEMICAL_FORMULA>
C11H8F3NOS2

> <MOLECULAR_WEIGHT>
291.313

> <EXACT_MASS>
290.999939878

> <IUPAC_NAME>
(5R)-2-sulfanyl-5-{[4-(trifluoromethyl)phenyl]methyl}-4,5-dihydro-1,3-thiazol-4-one

> <IUPAC_TRADITIONAL_NAME>
(5R)-2-sulfanyl-5-{[4-(trifluoromethyl)phenyl]methyl}-5H-1,3-thiazol-4-one

> <INCHI_IDENTIFIER>
InChI=1S/C11H8F3NOS2/c12-11(13,14)7-3-1-6(2-4-7)5-8-9(16)15-10(17)18-8/h1-4,8H,5H2,(H,15,16,17)/t8-/m1/s1

> <INCHI_KEY>
InChIKey=HBYVUUWMCCSRBI-MRVPVSSYSA-N

> <SMILES>
[H][C@]1(CC2=CC=C(C=C2)C(F)(F)F)SC(S)=NC1=O

> <JCHEM_ACCEPTOR_COUNT>
2

> <JCHEM_DONOR_COUNT>
1

> <JCHEM_ACIDIC_PKA>
5.65

> <JCHEM_BASIC_PKA>
-5.1

> <JCHEM_PHYSIOLOGICAL_CHARGE>
-1

> <ALOGPS_LOGP>
3.67

> <JCHEM_LOGP>
3.71

> <ALOGPS_LOGS>
-4.3

> <JCHEM_POLARIZABILITY>
25.08

> <JCHEM_POLAR_SURFACE_AREA>
29.43

> <JCHEM_REFRACTIVITY>
67.07

> <JCHEM_ROTATABLE_BOND_COUNT>
3

> <ALOGPS_SOLUBILITY>
1.36e-02 g/l __ 

$$$$
