MY1
  Mrv0541 02241213572D          

 29 30  0  0  0  0            999 V2000
   -2.2230   -0.0660    0.0000 C   0  0  0  0  0  0  0  0  0  0  0  0
   -2.9375    0.3465    0.0000 N   0  0  0  0  0  0  0  0  0  0  0  0
   -2.2230   -0.8910    0.0000 O   0  0  0  0  0  0  0  0  0  0  0  0
   -2.9375    1.1715    0.0000 N   0  0  0  0  0  0  0  0  0  0  0  0
   -3.6520   -0.0660    0.0000 C   0  0  0  0  0  0  0  0  0  0  0  0
   -4.3665    0.3465    0.0000 C   0  0  0  0  0  0  0  0  0  0  0  0
   -5.0809   -0.0660    0.0000 O   0  0  0  0  0  0  0  0  0  0  0  0
   -4.3665    1.1715    0.0000 O   0  0  0  0  0  0  0  0  0  0  0  0
   -1.5086    0.3465    0.0000 C   0  0  0  0  0  0  0  0  0  0  0  0
   -0.7941   -0.0660    0.0000 C   0  0  2  0  0  0  0  0  0  0  0  0
   -0.7941   -0.8910    0.0000 O   0  0  0  0  0  0  0  0  0  0  0  0
   -0.0796    0.3465    0.0000 C   0  0  0  0  0  0  0  0  0  0  0  0
    0.6348   -0.0660    0.0000 N   0  0  0  0  0  0  0  0  0  0  0  0
   -0.0796    1.1715    0.0000 O   0  0  0  0  0  0  0  0  0  0  0  0
    0.6348   -0.8910    0.0000 C   0  0  0  0  0  0  0  0  0  0  0  0
    1.3493    0.3465    0.0000 C   0  0  0  0  0  0  0  0  0  0  0  0
    1.3493    1.1715    0.0000 C   0  0  0  0  0  0  0  0  0  0  0  0
    0.6348    1.5840    0.0000 C   0  0  0  0  0  0  0  0  0  0  0  0
    0.6348    2.4090    0.0000 C   0  0  0  0  0  0  0  0  0  0  0  0
    1.3493    2.8215    0.0000 C   0  0  0  0  0  0  0  0  0  0  0  0
    2.0638    2.4090    0.0000 C   0  0  0  0  0  0  0  0  0  0  0  0
    2.0638    1.5840    0.0000 C   0  0  0  0  0  0  0  0  0  0  0  0
    1.3493   -1.3035    0.0000 C   0  0  0  0  0  0  0  0  0  0  0  0
    2.0638   -0.8910    0.0000 C   0  0  0  0  0  0  0  0  0  0  0  0
    2.7783   -1.3035    0.0000 C   0  0  0  0  0  0  0  0  0  0  0  0
    2.7783   -2.1285    0.0000 C   0  0  0  0  0  0  0  0  0  0  0  0
    2.0638   -2.5410    0.0000 C   0  0  0  0  0  0  0  0  0  0  0  0
    1.3493   -2.1285    0.0000 C   0  0  0  0  0  0  0  0  0  0  0  0
   -1.2998   -0.3579    0.0000 H   0  0  0  0  0  0  0  0  0  0  0  0
  1  2  1  0  0  0  0
  1  3  2  0  0  0  0
  1  9  1  0  0  0  0
  2  4  1  0  0  0  0
  2  5  1  0  0  0  0
  5  6  1  0  0  0  0
  6  7  1  0  0  0  0
  6  8  2  0  0  0  0
  9 10  1  0  0  0  0
 10 11  1  1  0  0  0
 10 12  1  0  0  0  0
 10 29  1  6  0  0  0
 12 13  1  0  0  0  0
 12 14  2  0  0  0  0
 13 15  1  0  0  0  0
 13 16  1  0  0  0  0
 15 23  1  0  0  0  0
 16 17  1  0  0  0  0
 17 18  2  0  0  0  0
 17 22  1  0  0  0  0
 18 19  1  0  0  0  0
 19 20  2  0  0  0  0
 20 21  1  0  0  0  0
 21 22  2  0  0  0  0
 23 24  2  0  0  0  0
 23 28  1  0  0  0  0
 24 25  1  0  0  0  0
 25 26  2  0  0  0  0
 26 27  1  0  0  0  0
 27 28  2  0  0  0  0
M  END
> <DRUGBANK_ID>
DB08229

> <DRUG_GROUPS>
experimental

> <GENERIC_NAME>
[N-(3-DIBENZYLCARBAMOYL-OXIRANECARBONYL)-HYDRAZINO]-ACETIC ACID

> <CHEMICAL_FORMULA>
C20H23N3O5

> <MOLECULAR_WEIGHT>
385.4137

> <EXACT_MASS>
385.163770861

> <IUPAC_NAME>
2-[(3S)-N-amino-3-(dibenzylcarbamoyl)-3-hydroxypropanamido]acetic acid

> <IUPAC_TRADITIONAL_NAME>
[(3S)-N-amino-3-(dibenzylcarbamoyl)-3-hydroxypropanamido]acetic acid

> <INCHI_IDENTIFIER>
InChI=1S/C20H23N3O5/c21-23(14-19(26)27)18(25)11-17(24)20(28)22(12-15-7-3-1-4-8-15)13-16-9-5-2-6-10-16/h1-10,17,24H,11-14,21H2,(H,26,27)/t17-/m0/s1

> <INCHI_KEY>
InChIKey=JGMMFVVACJREFE-KRWDZBQOSA-N

> <SMILES>
[H][C@](O)(CC(=O)N(N)CC(O)=O)C(=O)N(CC1=CC=CC=C1)CC1=CC=CC=C1

> <JCHEM_ACCEPTOR_COUNT>
6

> <JCHEM_DONOR_COUNT>
3

> <JCHEM_ACIDIC_PKA>
3.75

> <JCHEM_BASIC_PKA>
3

> <JCHEM_PHYSIOLOGICAL_CHARGE>
-1

> <ALOGPS_LOGP>
1.35

> <JCHEM_LOGP>
0.055

> <ALOGPS_LOGS>
-4.1

> <JCHEM_POLARIZABILITY>
38.2

> <JCHEM_POLAR_SURFACE_AREA>
124.17

> <JCHEM_REFRACTIVITY>
103

> <JCHEM_ROTATABLE_BOND_COUNT>
9

> <ALOGPS_SOLUBILITY>
2.91e-02 g/l __ 

$$$$
