R8D
  Mrv0541 02241214062D          

 28 31  0  0  0  0            999 V2000
   -0.5149   -2.0715    0.0000 Cl   0  0  0  0  0  0  0  0  0  0  0  0
   -0.2600   -1.2869    0.0000 C    0  0  0  0  0  0  0  0  0  0  0  0
   -0.8120   -0.6738    0.0000 C    0  0  0  0  0  0  0  0  0  0  0  0
   -1.6190   -0.8453    0.0000 O    0  0  0  0  0  0  0  0  0  0  0  0
   -1.8739   -1.6299    0.0000 C    0  0  0  0  0  0  0  0  0  0  0  0
   -1.3219   -2.2430    0.0000 C    0  0  0  0  0  0  0  0  0  0  0  0
   -1.5768   -3.0277    0.0000 C    0  0  0  0  0  0  0  0  0  0  0  0
   -1.0248   -3.6408    0.0000 C    0  0  0  0  0  0  0  0  0  0  0  0
   -0.4728   -4.2539    0.0000 N    0  0  0  0  0  0  0  0  0  0  0  0
   -2.6809   -1.8015    0.0000 C    0  0  0  0  0  0  0  0  0  0  0  0
   -2.9358   -2.5861    0.0000 C    0  0  0  0  0  0  0  0  0  0  0  0
   -3.7428   -2.7576    0.0000 Cl   0  0  0  0  0  0  0  0  0  0  0  0
   -2.3838   -3.1992    0.0000 C    0  0  0  0  0  0  0  0  0  0  0  0
    0.5470   -1.1154    0.0000 C    0  0  0  0  0  0  0  0  0  0  0  0
    0.8019   -0.3307    0.0000 C    0  0  0  0  0  0  0  0  0  0  0  0
    0.2499    0.2824    0.0000 C    0  0  0  0  0  0  0  0  0  0  0  0
   -0.5571    0.1108    0.0000 C    0  0  0  0  0  0  0  0  0  0  0  0
    0.5048    1.0670    0.0000 O    0  0  0  0  0  0  0  0  0  0  0  0
    1.3118    1.2385    0.0000 C    0  0  0  0  0  0  0  0  0  0  0  0
    1.5668    2.0231    0.0000 C    0  0  0  0  0  0  0  0  0  0  0  0
    1.0818    2.6906    0.0000 N    0  0  0  0  0  0  0  0  0  0  0  0
    1.5668    3.3580    0.0000 N    0  0  0  0  0  0  0  0  0  0  0  0
    2.3514    3.1031    0.0000 C    0  0  0  0  0  0  0  0  0  0  0  0
    3.0658    3.5156    0.0000 N    0  0  0  0  0  0  0  0  0  0  0  0
    3.7803    3.1031    0.0000 C    0  0  0  0  0  0  0  0  0  0  0  0
    3.7803    2.2781    0.0000 C    0  0  0  0  0  0  0  0  0  0  0  0
    3.0658    1.8656    0.0000 C    0  0  0  0  0  0  0  0  0  0  0  0
    2.3514    2.2781    0.0000 C    0  0  0  0  0  0  0  0  0  0  0  0
  1  2  1  0  0  0  0
  2  3  2  0  0  0  0
  2 14  1  0  0  0  0
  3  4  1  0  0  0  0
  3 17  1  0  0  0  0
  4  5  1  0  0  0  0
  5  6  2  0  0  0  0
  5 10  1  0  0  0  0
  6  7  1  0  0  0  0
  7  8  1  0  0  0  0
  7 13  2  0  0  0  0
  8  9  3  0  0  0  0
 10 11  2  0  0  0  0
 11 12  1  0  0  0  0
 11 13  1  0  0  0  0
 14 15  2  0  0  0  0
 15 16  1  0  0  0  0
 16 17  2  0  0  0  0
 16 18  1  0  0  0  0
 18 19  1  0  0  0  0
 19 20  1  0  0  0  0
 20 21  2  0  0  0  0
 20 28  1  0  0  0  0
 21 22  1  0  0  0  0
 22 23  1  0  0  0  0
 23 24  2  0  0  0  0
 23 28  1  0  0  0  0
 24 25  1  0  0  0  0
 25 26  2  0  0  0  0
 26 27  1  0  0  0  0
 27 28  2  0  0  0  0
M  END
> <DRUGBANK_ID>
DB08459

> <DRUG_GROUPS>
experimental

> <GENERIC_NAME>
3-chloro-5-[2-chloro-5-(1H-pyrazolo[3,4-b]pyridin-3-ylmethoxy)phenoxy]benzonitrile

> <CHEMICAL_FORMULA>
C20H12Cl2N4O2

> <MOLECULAR_WEIGHT>
411.241

> <EXACT_MASS>
410.033731062

> <IUPAC_NAME>
3-chloro-5-(2-chloro-5-{1H-pyrazolo[3,4-b]pyridin-3-ylmethoxy}phenoxy)benzonitrile

> <IUPAC_TRADITIONAL_NAME>
3-chloro-5-(2-chloro-5-{1H-pyrazolo[3,4-b]pyridin-3-ylmethoxy}phenoxy)benzonitrile

> <INCHI_IDENTIFIER>
InChI=1S/C20H12Cl2N4O2/c21-13-6-12(10-23)7-15(8-13)28-19-9-14(3-4-17(19)22)27-11-18-16-2-1-5-24-20(16)26-25-18/h1-9H,11H2,(H,24,25,26)

> <INCHI_KEY>
InChIKey=SVMHTBVIPYVDIL-UHFFFAOYSA-N

> <SMILES>
ClC1=CC(OC2=C(Cl)C=CC(OCC3=NNC4=NC=CC=C34)=C2)=CC(=C1)C#N

> <JCHEM_ACCEPTOR_COUNT>
4

> <JCHEM_DONOR_COUNT>
1

> <JCHEM_ACIDIC_PKA>
10.67

> <JCHEM_BASIC_PKA>
2.86

> <JCHEM_PHYSIOLOGICAL_CHARGE>
0

> <ALOGPS_LOGP>
5.17

> <JCHEM_LOGP>
4.66

> <ALOGPS_LOGS>
-4.9

> <JCHEM_POLARIZABILITY>
39.69

> <JCHEM_POLAR_SURFACE_AREA>
83.82

> <JCHEM_REFRACTIVITY>
105.99

> <JCHEM_ROTATABLE_BOND_COUNT>
5

> <ALOGPS_SOLUBILITY>
5.27e-03 g/l __ 

$$$$
