KS5
  Mrv0541 02241213492D          

 23 26  0  0  0  0            999 V2000
   -2.7322    0.8498    0.0000 C   0  0  0  0  0  0  0  0  0  0  0  0
   -2.2473    0.1823    0.0000 C   0  0  0  0  0  0  0  0  0  0  0  0
   -2.5828   -0.5714    0.0000 C   0  0  0  0  0  0  0  0  0  0  0  0
   -1.4268    0.2686    0.0000 N   0  0  0  0  0  0  0  0  0  0  0  0
   -0.8748   -0.3445    0.0000 N   0  0  0  0  0  0  0  0  0  0  0  0
   -1.0143    0.9830    0.0000 C   0  0  0  0  0  0  0  0  0  0  0  0
   -1.2692    1.7676    0.0000 N   0  0  0  0  0  0  0  0  0  0  0  0
   -0.7172    2.3807    0.0000 C   0  0  0  0  0  0  0  0  0  0  0  0
    0.0898    2.2092    0.0000 N   0  0  0  0  0  0  0  0  0  0  0  0
    0.3447    1.4246    0.0000 C   0  0  0  0  0  0  0  0  0  0  0  0
    1.1517    1.2531    0.0000 N   0  0  0  0  0  0  0  0  0  0  0  0
   -0.2073    0.8115    0.0000 C   0  0  0  0  0  0  0  0  0  0  0  0
   -0.1211   -0.0090    0.0000 C   0  0  0  0  0  0  0  0  0  0  0  0
    0.5934   -0.4215    0.0000 C   0  0  0  0  0  0  0  0  0  0  0  0
    1.3079   -0.0090    0.0000 C   0  0  0  0  0  0  0  0  0  0  0  0
    2.0223   -0.4215    0.0000 C   0  0  0  0  0  0  0  0  0  0  0  0
    2.7368   -0.0090    0.0000 C   0  0  0  0  0  0  0  0  0  0  0  0
    3.4513   -0.4215    0.0000 C   0  0  0  0  0  0  0  0  0  0  0  0
    3.4513   -1.2465    0.0000 C   0  0  0  0  0  0  0  0  0  0  0  0
    2.7368   -1.6590    0.0000 N   0  0  0  0  0  0  0  0  0  0  0  0
    2.0223   -1.2465    0.0000 C   0  0  0  0  0  0  0  0  0  0  0  0
    1.3079   -1.6590    0.0000 C   0  0  0  0  0  0  0  0  0  0  0  0
    0.5934   -1.2465    0.0000 C   0  0  0  0  0  0  0  0  0  0  0  0
  1  2  1  0  0  0  0
  2  3  1  0  0  0  0
  2  4  1  0  0  0  0
  4  5  1  0  0  0  0
  4  6  1  0  0  0  0
  5 13  2  0  0  0  0
  6  7  2  0  0  0  0
  6 12  1  0  0  0  0
  7  8  1  0  0  0  0
  8  9  2  0  0  0  0
  9 10  1  0  0  0  0
 10 11  1  0  0  0  0
 10 12  2  0  0  0  0
 12 13  1  0  0  0  0
 13 14  1  0  0  0  0
 14 15  2  0  0  0  0
 14 23  1  0  0  0  0
 15 16  1  0  0  0  0
 16 17  2  0  0  0  0
 16 21  1  0  0  0  0
 17 18  1  0  0  0  0
 18 19  2  0  0  0  0
 19 20  1  0  0  0  0
 20 21  2  0  0  0  0
 21 22  1  0  0  0  0
 22 23  2  0  0  0  0
M  END
> <DRUGBANK_ID>
DB08054

> <DRUG_GROUPS>
experimental

> <GENERIC_NAME>
1-(1-methylethyl)-3-quinolin-6-yl-1H-pyrazolo[3,4-d]pyrimidin-4-amine

> <CHEMICAL_FORMULA>
C17H16N6

> <MOLECULAR_WEIGHT>
304.3491

> <EXACT_MASS>
304.143644542

> <IUPAC_NAME>
1-(propan-2-yl)-3-(quinolin-6-yl)-1H-pyrazolo[3,4-d]pyrimidin-4-amine

> <IUPAC_TRADITIONAL_NAME>
1-isopropyl-3-(quinolin-6-yl)pyrazolo[3,4-d]pyrimidin-4-amine

> <INCHI_IDENTIFIER>
InChI=1S/C17H16N6/c1-10(2)23-17-14(16(18)20-9-21-17)15(22-23)12-5-6-13-11(8-12)4-3-7-19-13/h3-10H,1-2H3,(H2,18,20,21)

> <INCHI_KEY>
InChIKey=GEZALMMCQYDFML-UHFFFAOYSA-N

> <SMILES>
CC(C)N1N=C(C2=C(N)N=CN=C12)C1=CC2=CC=CN=C2C=C1

> <JCHEM_ACCEPTOR_COUNT>
5

> <JCHEM_DONOR_COUNT>
1

> <JCHEM_ACIDIC_PKA>
19.7

> <JCHEM_BASIC_PKA>
6.59

> <JCHEM_PHYSIOLOGICAL_CHARGE>
0

> <ALOGPS_LOGP>
2.58

> <JCHEM_LOGP>
2.59

> <ALOGPS_LOGS>
-3.7

> <JCHEM_POLARIZABILITY>
33.07

> <JCHEM_POLAR_SURFACE_AREA>
82.51

> <JCHEM_REFRACTIVITY>
100.77

> <JCHEM_ROTATABLE_BOND_COUNT>
2

> <ALOGPS_SOLUBILITY>
6.16e-02 g/l __ 

$$$$
