S2D
  Mrv0541 02241214082D          

 15 15  0  0  0  0            999 V2000
    0.0241    1.1776    0.0000 O   0  0  0  0  0  0  0  0  0  0  0  0
    0.0241    0.3526    0.0000 C   0  0  0  0  0  0  0  0  0  0  0  0
   -0.6904   -0.0599    0.0000 C   0  0  0  0  0  0  0  0  0  0  0  0
   -0.6904   -0.8849    0.0000 C   0  0  0  0  0  0  0  0  0  0  0  0
   -1.4048   -1.2974    0.0000 C   0  0  0  0  0  0  0  0  0  0  0  0
   -2.1193   -0.8849    0.0000 C   0  0  0  0  0  0  0  0  0  0  0  0
   -2.1193   -0.0599    0.0000 C   0  0  0  0  0  0  0  0  0  0  0  0
   -1.4048    0.3526    0.0000 C   0  0  0  0  0  0  0  0  0  0  0  0
    0.7386   -0.0599    0.0000 N   0  0  0  0  0  0  0  0  0  0  0  0
    1.4530    0.3526    0.0000 C   0  0  2  0  0  0  0  0  0  0  0  0
    1.4530    1.1776    0.0000 C   0  0  0  0  0  0  0  0  0  0  0  0
    2.1675   -0.0599    0.0000 C   0  0  0  0  0  0  0  0  0  0  0  0
    2.8820    0.3526    0.0000 O   0  0  0  0  0  0  0  0  0  0  0  0
    2.1675   -0.8849    0.0000 O   0  0  0  0  0  0  0  0  0  0  0  0
    0.9473    0.6445    0.0000 H   0  0  0  0  0  0  0  0  0  0  0  0
  1  2  2  0  0  0  0
  2  3  1  0  0  0  0
  2  9  1  0  0  0  0
  3  4  1  0  0  0  0
  3  8  2  0  0  0  0
  4  5  2  0  0  0  0
  5  6  1  0  0  0  0
  6  7  2  0  0  0  0
  7  8  1  0  0  0  0
  9 10  1  0  0  0  0
 10 11  1  6  0  0  0
 10 12  1  0  0  0  0
 10 15  1  1  0  0  0
 12 13  2  0  0  0  0
 12 14  1  0  0  0  0
M  END
> <DRUGBANK_ID>
DB08508

> <DRUG_GROUPS>
experimental

> <GENERIC_NAME>
N-BENZOYL-D-ALANINE

> <CHEMICAL_FORMULA>
C10H11NO3

> <MOLECULAR_WEIGHT>
193.1992

> <EXACT_MASS>
193.073893223

> <IUPAC_NAME>
(2R)-2-(phenylformamido)propanoic acid

> <IUPAC_TRADITIONAL_NAME>
(2R)-2-(phenylformamido)propanoic acid

> <INCHI_IDENTIFIER>
InChI=1S/C10H11NO3/c1-7(10(13)14)11-9(12)8-5-3-2-4-6-8/h2-7H,1H3,(H,11,12)(H,13,14)/t7-/m1/s1

> <INCHI_KEY>
InChIKey=UAQVHNZEONHPQG-SSDOTTSWSA-N

> <SMILES>
[H][C@](C)(NC(=O)C1=CC=CC=C1)C(O)=O

> <JCHEM_ACCEPTOR_COUNT>
3

> <JCHEM_DONOR_COUNT>
2

> <JCHEM_ACIDIC_PKA>
3.66

> <JCHEM_BASIC_PKA>
-1.3

> <JCHEM_PHYSIOLOGICAL_CHARGE>
-1

> <ALOGPS_LOGP>
0.88

> <JCHEM_LOGP>
1.09

> <ALOGPS_LOGS>
-2

> <JCHEM_POLARIZABILITY>
19.45

> <JCHEM_POLAR_SURFACE_AREA>
66.4

> <JCHEM_REFRACTIVITY>
50.61

> <JCHEM_ROTATABLE_BOND_COUNT>
3

> <ALOGPS_SOLUBILITY>
2.07e+00 g/l __ 

$$$$
