N2M
  Mrv0541 02241213572D          

 15 16  0  0  0  0            999 V2000
   -0.6229   -2.7390    0.0000 S   0  0  0  0  0  0  0  0  0  0  0  0
   -1.3374   -3.1515    0.0000 O   0  0  0  0  0  0  0  0  0  0  0  0
   -0.2104   -3.4535    0.0000 O   0  0  0  0  0  0  0  0  0  0  0  0
   -1.0354   -2.0245    0.0000 O   0  0  0  0  0  0  0  0  0  0  0  0
    0.8060   -2.7390    0.0000 C   0  0  0  0  0  0  0  0  0  0  0  0
    0.0916   -2.3265    0.0000 C   0  0  0  0  0  0  0  0  0  0  0  0
    0.0916   -1.5015    0.0000 C   0  0  0  0  0  0  0  0  0  0  0  0
    0.8060   -1.0890    0.0000 C   0  0  0  0  0  0  0  0  0  0  0  0
    2.2350   -1.0890    0.0000 C   0  0  0  0  0  0  0  0  0  0  0  0
    2.9495   -1.5015    0.0000 C   0  0  0  0  0  0  0  0  0  0  0  0
    2.9495   -2.3265    0.0000 C   0  0  0  0  0  0  0  0  0  0  0  0
    2.2350   -2.7390    0.0000 C   0  0  0  0  0  0  0  0  0  0  0  0
    1.5205   -2.3265    0.0000 C   0  0  0  0  0  0  0  0  0  0  0  0
    1.5205   -1.5015    0.0000 C   0  0  0  0  0  0  0  0  0  0  0  0
    2.2350   -0.2640    0.0000 N   0  0  0  0  0  0  0  0  0  0  0  0
  1  2  1  0  0  0  0
  1  3  2  0  0  0  0
  1  4  2  0  0  0  0
  1  6  1  0  0  0  0
  5  6  1  0  0  0  0
  5 13  2  0  0  0  0
  6  7  2  0  0  0  0
  7  8  1  0  0  0  0
  8 14  2  0  0  0  0
  9 10  2  0  0  0  0
  9 14  1  0  0  0  0
  9 15  1  0  0  0  0
 10 11  1  0  0  0  0
 11 12  2  0  0  0  0
 12 13  1  0  0  0  0
 13 14  1  0  0  0  0
M  END
> <DRUGBANK_ID>
DB08238

> <DRUG_GROUPS>
experimental

> <GENERIC_NAME>
5-AMINO-NAPHTALENE-2-MONOSULFONATE

> <CHEMICAL_FORMULA>
C10H9NO3S

> <MOLECULAR_WEIGHT>
223.248

> <EXACT_MASS>
223.030313849

> <IUPAC_NAME>
5-aminonaphthalene-2-sulfonic acid

> <IUPAC_TRADITIONAL_NAME>
5-aminonaphthalene-2-sulfonic acid

> <INCHI_IDENTIFIER>
InChI=1S/C10H9NO3S/c11-10-3-1-2-7-6-8(15(12,13)14)4-5-9(7)10/h1-6H,11H2,(H,12,13,14)

> <INCHI_KEY>
InChIKey=UWPJYQYRSWYIGZ-UHFFFAOYSA-N

> <SMILES>
NC1=CC=CC2=CC(=CC=C12)S(O)(=O)=O

> <JCHEM_ACCEPTOR_COUNT>
4

> <JCHEM_DONOR_COUNT>
2

> <JCHEM_ACIDIC_PKA>
-2.2

> <JCHEM_BASIC_PKA>
3.58

> <JCHEM_PHYSIOLOGICAL_CHARGE>
-1

> <ALOGPS_LOGP>
-0.81

> <JCHEM_LOGP>
1.09

> <ALOGPS_LOGS>
-2.5

> <JCHEM_POLARIZABILITY>
21.72

> <JCHEM_POLAR_SURFACE_AREA>
80.39

> <JCHEM_REFRACTIVITY>
57.83

> <JCHEM_ROTATABLE_BOND_COUNT>
1

> <ALOGPS_SOLUBILITY>
6.44e-01 g/l __ 

$$$$
