MR4
  Mrv0541 02241213562D          

 18 20  0  0  0  0            999 V2000
   -2.1110    1.4090    0.0000 C   0  0  0  0  0  0  0  0  0  0  0  0
   -1.6985    0.6946    0.0000 C   0  0  0  0  0  0  0  0  0  0  0  0
   -0.8735    0.6946    0.0000 C   0  0  0  0  0  0  0  0  0  0  0  0
   -2.1110   -0.0199    0.0000 C   0  0  0  0  0  0  0  0  0  0  0  0
   -2.9360   -0.0199    0.0000 O   0  0  0  0  0  0  0  0  0  0  0  0
   -1.6985   -0.7344    0.0000 C   0  0  0  0  0  0  0  0  0  0  0  0
   -2.1110   -1.4489    0.0000 C   0  0  0  0  0  0  0  0  0  0  0  0
   -0.8735   -0.7344    0.0000 C   0  0  0  0  0  0  0  0  0  0  0  0
   -0.4610   -0.0199    0.0000 C   0  0  0  0  0  0  0  0  0  0  0  0
    0.3640   -0.0199    0.0000 C   0  0  0  0  0  0  0  0  0  0  0  0
    0.8489    0.6475    0.0000 O   0  0  0  0  0  0  0  0  0  0  0  0
    1.6335    0.3926    0.0000 C   0  0  0  0  0  0  0  0  0  0  0  0
    2.3480    0.8051    0.0000 C   0  0  0  0  0  0  0  0  0  0  0  0
    3.0625    0.3926    0.0000 C   0  0  0  0  0  0  0  0  0  0  0  0
    3.0625   -0.4324    0.0000 C   0  0  0  0  0  0  0  0  0  0  0  0
    2.3480   -0.8449    0.0000 C   0  0  0  0  0  0  0  0  0  0  0  0
    1.6335   -0.4324    0.0000 C   0  0  0  0  0  0  0  0  0  0  0  0
    0.8489   -0.6874    0.0000 N   0  0  0  0  0  0  0  0  0  0  0  0
  1  2  1  0  0  0  0
  2  3  2  0  0  0  0
  2  4  1  0  0  0  0
  3  9  1  0  0  0  0
  4  6  2  0  0  0  0
  4  5  1  0  0  0  0
  6  8  1  0  0  0  0
  6  7  1  0  0  0  0
  8  9  2  0  0  0  0
  9 10  1  0  0  0  0
 10 18  2  0  0  0  0
 10 11  1  0  0  0  0
 11 12  1  0  0  0  0
 12 13  2  0  0  0  0
 12 17  1  0  0  0  0
 13 14  1  0  0  0  0
 14 15  2  0  0  0  0
 15 16  1  0  0  0  0
 16 17  2  0  0  0  0
 17 18  1  0  0  0  0
M  END
> <DRUGBANK_ID>
DB08205

> <DRUG_GROUPS>
experimental

> <GENERIC_NAME>
4-(1,3-BENZOXAZOL-2-YL)-2,6-DIMETHYLPHENOL

> <CHEMICAL_FORMULA>
C15H13NO2

> <MOLECULAR_WEIGHT>
239.2692

> <EXACT_MASS>
239.094628665

> <IUPAC_NAME>
4-(1,3-benzoxazol-2-yl)-2,6-dimethylphenol

> <IUPAC_TRADITIONAL_NAME>
4-(1,3-benzoxazol-2-yl)-2,6-dimethylphenol

> <INCHI_IDENTIFIER>
InChI=1S/C15H13NO2/c1-9-7-11(8-10(2)14(9)17)15-16-12-5-3-4-6-13(12)18-15/h3-8,17H,1-2H3

> <INCHI_KEY>
InChIKey=NORYHCMDDBZXDX-UHFFFAOYSA-N

> <SMILES>
CC1=CC(=CC(C)=C1O)C1=NC2=CC=CC=C2O1

> <JCHEM_ACCEPTOR_COUNT>
2

> <JCHEM_DONOR_COUNT>
1

> <JCHEM_ACIDIC_PKA>
9.78

> <JCHEM_BASIC_PKA>
0.2

> <JCHEM_PHYSIOLOGICAL_CHARGE>
0

> <ALOGPS_LOGP>
4.07

> <JCHEM_LOGP>
4.07

> <ALOGPS_LOGS>
-3.5

> <JCHEM_POLARIZABILITY>
26.92

> <JCHEM_POLAR_SURFACE_AREA>
46.26

> <JCHEM_REFRACTIVITY>
79.89

> <JCHEM_ROTATABLE_BOND_COUNT>
1

> <ALOGPS_SOLUBILITY>
7.71e-02 g/l __ 

$$$$
