JNF
  Mrv0541 02241213482D          

 23 26  0  0  0  0            999 V2000
   -1.5977   -2.0711    0.0000 C   0  0  0  0  0  0  0  0  0  0  0  0
   -1.3428   -1.2865    0.0000 N   0  0  0  0  0  0  0  0  0  0  0  0
   -0.5358   -1.1150    0.0000 C   0  0  0  0  0  0  0  0  0  0  0  0
   -0.2808   -0.3304    0.0000 N   0  0  0  0  0  0  0  0  0  0  0  0
    0.5261   -0.1588    0.0000 C   0  0  0  0  0  0  0  0  0  0  0  0
    0.7811    0.6258    0.0000 C   0  0  0  0  0  0  0  0  0  0  0  0
    1.5657    0.8807    0.0000 N   0  0  0  0  0  0  0  0  0  0  0  0
    1.5657    1.7057    0.0000 C   0  0  0  0  0  0  0  0  0  0  0  0
    2.2802    2.1182    0.0000 C   0  0  0  0  0  0  0  0  0  0  0  0
    2.9946    1.7057    0.0000 C   0  0  0  0  0  0  0  0  0  0  0  0
    2.9946    0.8807    0.0000 C   0  0  0  0  0  0  0  0  0  0  0  0
    2.2802    0.4682    0.0000 C   0  0  0  0  0  0  0  0  0  0  0  0
    0.7811    1.9607    0.0000 N   0  0  0  0  0  0  0  0  0  0  0  0
    0.2961    1.2932    0.0000 C   0  0  0  0  0  0  0  0  0  0  0  0
    1.0782   -0.7719    0.0000 C   0  0  0  0  0  0  0  0  0  0  0  0
    0.8232   -1.5566    0.0000 C   0  0  0  0  0  0  0  0  0  0  0  0
    0.0162   -1.7281    0.0000 N   0  0  0  0  0  0  0  0  0  0  0  0
   -1.8948   -0.6734    0.0000 C   0  0  0  0  0  0  0  0  0  0  0  0
   -2.7018   -0.8449    0.0000 C   0  0  0  0  0  0  0  0  0  0  0  0
   -3.2538   -0.2319    0.0000 C   0  0  0  0  0  0  0  0  0  0  0  0
   -2.9989    0.5528    0.0000 C   0  0  0  0  0  0  0  0  0  0  0  0
   -2.1919    0.7243    0.0000 C   0  0  0  0  0  0  0  0  0  0  0  0
   -1.6399    0.1112    0.0000 C   0  0  0  0  0  0  0  0  0  0  0  0
  1  2  1  0  0  0  0
  2  3  1  0  0  0  0
  2 18  1  0  0  0  0
  3  4  2  0  0  0  0
  3 17  1  0  0  0  0
  4  5  1  0  0  0  0
  5  6  1  0  0  0  0
  5 15  2  0  0  0  0
  6  7  1  0  0  0  0
  6 14  2  0  0  0  0
  7  8  1  0  0  0  0
  7 12  1  0  0  0  0
  8  9  1  0  0  0  0
  8 13  2  0  0  0  0
  9 10  2  0  0  0  0
 10 11  1  0  0  0  0
 11 12  2  0  0  0  0
 13 14  1  0  0  0  0
 15 16  1  0  0  0  0
 16 17  2  0  0  0  0
 18 19  1  0  0  0  0
 18 23  1  0  0  0  0
 19 20  1  0  0  0  0
 20 21  1  0  0  0  0
 21 22  1  0  0  0  0
 22 23  1  0  0  0  0
M  END
> <DRUGBANK_ID>
DB08023

> <DRUG_GROUPS>
experimental

> <GENERIC_NAME>
N-cyclohexyl-4-imidazo[1,2-a]pyridin-3-yl-N-methylpyrimidin-2-amine

> <CHEMICAL_FORMULA>
C18H21N5

> <MOLECULAR_WEIGHT>
307.3928

> <EXACT_MASS>
307.179695697

> <IUPAC_NAME>
N-cyclohexyl-4-{imidazo[1,2-a]pyridin-3-yl}-N-methylpyrimidin-2-amine

> <IUPAC_TRADITIONAL_NAME>
N-cyclohexyl-4-{imidazo[1,2-a]pyridin-3-yl}-N-methylpyrimidin-2-amine

> <INCHI_IDENTIFIER>
InChI=1S/C18H21N5/c1-22(14-7-3-2-4-8-14)18-19-11-10-15(21-18)16-13-20-17-9-5-6-12-23(16)17/h5-6,9-14H,2-4,7-8H2,1H3

> <INCHI_KEY>
InChIKey=HYNNWLVWJXWXFO-UHFFFAOYSA-N

> <SMILES>
CN(C1CCCCC1)C1=NC(=CC=N1)C1=CN=C2C=CC=CN12

> <JCHEM_ACCEPTOR_COUNT>
4

> <JCHEM_DONOR_COUNT>
0

> <JCHEM_BASIC_PKA>
5.54

> <JCHEM_PHYSIOLOGICAL_CHARGE>
0

> <ALOGPS_LOGP>
4.16

> <JCHEM_LOGP>
3.38

> <ALOGPS_LOGS>
-3.7

> <JCHEM_POLARIZABILITY>
34.85

> <JCHEM_POLAR_SURFACE_AREA>
46.32

> <JCHEM_REFRACTIVITY>
92.63

> <JCHEM_ROTATABLE_BOND_COUNT>
3

> <ALOGPS_SOLUBILITY>
5.60e-02 g/l __ 

$$$$
