SIL
  Mrv0541 02241214102D          

 19 19  0  0  0  0            999 V2000
   -3.7023   -1.2414    0.0000 C   0  0  0  0  0  0  0  0  0  0  0  0
   -2.9878   -1.6539    0.0000 C   0  0  0  0  0  0  0  0  0  0  0  0
   -2.2734   -1.2414    0.0000 C   0  0  0  0  0  0  0  0  0  0  0  0
   -1.5589   -1.6539    0.0000 C   0  0  0  0  0  0  0  0  0  0  0  0
   -0.8444   -1.2414    0.0000 C   0  0  0  0  0  0  0  0  0  0  0  0
   -0.1300   -1.6539    0.0000 C   0  0  0  0  0  0  0  0  0  0  0  0
    0.5845   -1.2414    0.0000 P   0  0  1  0  0  0  0  0  0  0  0  0
    0.9970   -1.9558    0.0000 O   0  0  0  0  0  0  0  0  0  0  0  0
    1.2990   -0.8289    0.0000 O   0  0  0  0  0  0  0  0  0  0  0  0
    2.0134   -1.2414    0.0000 C   0  0  0  0  0  0  0  0  0  0  0  0
    2.7279   -0.8289    0.0000 C   0  0  1  0  0  0  0  0  0  0  0  0
    2.8142   -0.0084    0.0000 C   0  0  0  0  0  0  0  0  0  0  0  0
    3.4816   -1.1645    0.0000 O   0  0  0  0  0  0  0  0  0  0  0  0
    4.0336   -0.5514    0.0000 C   0  0  0  0  0  0  0  0  0  0  0  0
    3.6211    0.1631    0.0000 O   0  0  0  0  0  0  0  0  0  0  0  0
    4.7061   -1.0293    0.0000 C   0  0  0  0  0  0  0  0  0  0  0  0
    4.7908   -0.2237    0.0000 C   0  0  0  0  0  0  0  0  0  0  0  0
    0.1720   -0.5270    0.0000 O   0  0  0  0  0  0  0  0  0  0  0  0
    2.2382   -0.5109    0.0000 H   0  0  0  0  0  0  0  0  0  0  0  0
  1  2  2  0  0  0  0
  2  3  1  0  0  0  0
  3  4  1  0  0  0  0
  4  5  1  0  0  0  0
  5  6  1  0  0  0  0
  6  7  1  0  0  0  0
  7  8  2  0  0  0  0
  7  9  1  6  0  0  0
  7 18  1  1  0  0  0
  9 10  1  0  0  0  0
 11 10  1  1  0  0  0
 11 12  1  0  0  0  0
 11 13  1  0  0  0  0
 11 19  1  6  0  0  0
 12 15  1  0  0  0  0
 13 14  1  0  0  0  0
 14 15  1  0  0  0  0
 14 16  1  0  0  0  0
 14 17  1  0  0  0  0
M  END
> <DRUGBANK_ID>
DB08548

> <DRUG_GROUPS>
experimental

> <GENERIC_NAME>
[(4S)-2,2-DIMETHYL-1,3-DIOXOLAN-4-YL]METHYL HYDROGEN HEX-5-ENYLPHOSPHONATE

> <CHEMICAL_FORMULA>
C12H23O5P

> <MOLECULAR_WEIGHT>
278.2818

> <EXACT_MASS>
278.128310358

> <IUPAC_NAME>
{[(4R)-2,2-dimethyl-1,3-dioxolan-4-yl]methoxy}(hex-5-en-1-yl)phosphinic acid

> <IUPAC_TRADITIONAL_NAME>
[(4R)-2,2-dimethyl-1,3-dioxolan-4-yl]methoxy(hex-5-en-1-yl)phosphinic acid

> <INCHI_IDENTIFIER>
InChI=1S/C12H23O5P/c1-4-5-6-7-8-18(13,14)16-10-11-9-15-12(2,3)17-11/h4,11H,1,5-10H2,2-3H3,(H,13,14)/t11-/m1/s1

> <INCHI_KEY>
InChIKey=BUTLRPVAJSANIT-LLVKDONJSA-N

> <SMILES>
[H][C@]1(CO[P@](O)(=O)CCCCC=C)COC(C)(C)O1

> <JCHEM_ACCEPTOR_COUNT>
4

> <JCHEM_DONOR_COUNT>
1

> <JCHEM_ACIDIC_PKA>
1.36

> <JCHEM_BASIC_PKA>
-4.1

> <JCHEM_PHYSIOLOGICAL_CHARGE>
-1

> <ALOGPS_LOGP>
1.15

> <JCHEM_LOGP>
1.72

> <ALOGPS_LOGS>
-1.5

> <JCHEM_POLARIZABILITY>
28.82

> <JCHEM_POLAR_SURFACE_AREA>
64.99

> <JCHEM_REFRACTIVITY>
69.37

> <JCHEM_ROTATABLE_BOND_COUNT>
8

> <ALOGPS_SOLUBILITY>
9.50e+00 g/l __ 

$$$$
