
  Mrv0541 07191319352D          

  9  9  0  0  0  0            999 V2000
   -2.6813    2.0866    0.0000 C   0  0  0  0  0  0  0  0  0  0  0  0
   -3.3487    1.6017    0.0000 C   0  0  1  0  0  0  0  0  0  0  0  0
   -3.0938    0.8171    0.0000 C   0  0  0  0  0  0  0  0  0  0  0  0
   -2.2687    0.8171    0.0000 N   0  0  0  0  0  0  0  0  0  0  0  0
   -2.0138    1.6017    0.0000 C   0  0  0  0  0  0  0  0  0  0  0  0
   -1.4305    2.1850    0.0000 C   0  0  0  0  0  0  0  0  0  0  0  0
   -0.8471    1.6017    0.0000 O   0  0  0  0  0  0  0  0  0  0  0  0
   -1.4305    3.0100    0.0000 O   0  0  0  0  0  0  0  0  0  0  0  0
   -4.0631    2.0142    0.0000 O   0  0  0  0  0  0  0  0  0  0  0  0
  1  2  1  0  0  0  0
  1  5  1  0  0  0  0
  2  3  1  0  0  0  0
  3  4  1  0  0  0  0
  4  5  1  1  0  0  0
  5  6  1  0  0  0  0
  6  7  1  0  0  0  0
  6  8  2  0  0  0  0
  2  9  1  1  0  0  0
M  END
> <DRUGBANK_ID>
DB08847

> <DRUG_GROUPS>
approved; experimental

> <GENERIC_NAME>
Hydroxyproline

> <SYNONYMS>


> <CHEMICAL_FORMULA>
C5H9NO3

> <MOLECULAR_WEIGHT>
131.1299

> <EXACT_MASS>
131.058243159

> <IUPAC_NAME>
(4S)-4-hydroxypyrrolidine-2-carboxylic acid

> <IUPAC_TRADITIONAL_NAME>
(4S)-4-hydroxypyrrolidine-2-carboxylic acid

> <INCHI_IDENTIFIER>
InChI=1/C5H9NO3/c7-3-1-4(5(8)9)6-2-3/h3-4,6-7H,1-2H2,(H,8,9)/t3-,4?/s2

> <INCHI_KEY>
InChIKey=PMMYEEVYMWASQN-ACHLYQRRNA-N

> <SMILES>
O[C@@H]1CNC(C1)C(O)=O

> <JCHEM_ACCEPTOR_COUNT>
4

> <JCHEM_DONOR_COUNT>
3

> <JCHEM_ACIDIC_PKA>
1.64

> <JCHEM_BASIC_PKA>
10.62

> <JCHEM_PHYSIOLOGICAL_CHARGE>
0

> <ALOGPS_LOGP>
-3.3

> <JCHEM_LOGP>
-3.7

> <ALOGPS_LOGS>
0.57

> <JCHEM_POLARIZABILITY>
12.33

> <JCHEM_POLAR_SURFACE_AREA>
69.56

> <JCHEM_REFRACTIVITY>
29.38

> <JCHEM_ROTATABLE_BOND_COUNT>
1

> <ALOGPS_SOLUBILITY>
4.92e+02 g/l __ 

$$$$
