N8E
  Mrv0541 02241213582D          

 24 23  0  0  0  0            999 V2000
   -7.7137   -0.1846    0.0000 C   0  0  0  0  0  0  0  0  0  0  0  0
   -6.9992    0.2279    0.0000 C   0  0  0  0  0  0  0  0  0  0  0  0
   -6.2847   -0.1846    0.0000 C   0  0  0  0  0  0  0  0  0  0  0  0
   -5.5701    0.2279    0.0000 C   0  0  0  0  0  0  0  0  0  0  0  0
   -4.8556   -0.1846    0.0000 C   0  0  0  0  0  0  0  0  0  0  0  0
   -4.1411    0.2279    0.0000 C   0  0  0  0  0  0  0  0  0  0  0  0
   -3.4266   -0.1846    0.0000 C   0  0  0  0  0  0  0  0  0  0  0  0
   -2.7120    0.2279    0.0000 C   0  0  0  0  0  0  0  0  0  0  0  0
   -1.9975   -0.1846    0.0000 O   0  0  0  0  0  0  0  0  0  0  0  0
   -1.2830    0.2279    0.0000 C   0  0  0  0  0  0  0  0  0  0  0  0
   -0.5684   -0.1846    0.0000 C   0  0  0  0  0  0  0  0  0  0  0  0
    0.1461    0.2279    0.0000 O   0  0  0  0  0  0  0  0  0  0  0  0
    0.8606   -0.1846    0.0000 C   0  0  0  0  0  0  0  0  0  0  0  0
    1.5751    0.2279    0.0000 C   0  0  0  0  0  0  0  0  0  0  0  0
    2.2897   -0.1846    0.0000 O   0  0  0  0  0  0  0  0  0  0  0  0
    3.0041    0.2279    0.0000 C   0  0  0  0  0  0  0  0  0  0  0  0
    3.7187   -0.1846    0.0000 C   0  0  0  0  0  0  0  0  0  0  0  0
    4.4332    0.2279    0.0000 O   0  0  0  0  0  0  0  0  0  0  0  0
    5.1477   -0.1846    0.0000 C   0  0  0  0  0  0  0  0  0  0  0  0
    5.8622    0.2279    0.0000 C   0  0  0  0  0  0  0  0  0  0  0  0
    6.5768   -0.1846    0.0000 O   0  0  0  0  0  0  0  0  0  0  0  0
    7.2913    0.2279    0.0000 C   0  0  0  0  0  0  0  0  0  0  0  0
    8.0058   -0.1846    0.0000 C   0  0  0  0  0  0  0  0  0  0  0  0
    8.7203    0.2279    0.0000 O   0  0  0  0  0  0  0  0  0  0  0  0
  1  2  1  0  0  0  0
  2  3  1  0  0  0  0
  3  4  1  0  0  0  0
  4  5  1  0  0  0  0
  5  6  1  0  0  0  0
  6  7  1  0  0  0  0
  7  8  1  0  0  0  0
  8  9  1  0  0  0  0
  9 10  1  0  0  0  0
 10 11  1  0  0  0  0
 11 12  1  0  0  0  0
 12 13  1  0  0  0  0
 13 14  1  0  0  0  0
 14 15  1  0  0  0  0
 15 16  1  0  0  0  0
 16 17  1  0  0  0  0
 17 18  1  0  0  0  0
 18 19  1  0  0  0  0
 19 20  1  0  0  0  0
 20 21  1  0  0  0  0
 21 22  1  0  0  0  0
 22 23  1  0  0  0  0
 23 24  1  0  0  0  0
M  END
> <DRUGBANK_ID>
DB08249

> <DRUG_GROUPS>
experimental

> <GENERIC_NAME>
3,6,9,12,15-PENTAOXATRICOSAN-1-OL

> <CHEMICAL_FORMULA>
C18H38O6

> <MOLECULAR_WEIGHT>
350.4907

> <EXACT_MASS>
350.266838948

> <IUPAC_NAME>
3,6,9,12,15-pentaoxatricosan-1-ol

> <IUPAC_TRADITIONAL_NAME>
3,6,9,12,15-pentaoxatricosan-1-ol

> <INCHI_IDENTIFIER>
InChI=1S/C18H38O6/c1-2-3-4-5-6-7-9-20-11-13-22-15-17-24-18-16-23-14-12-21-10-8-19/h19H,2-18H2,1H3

> <INCHI_KEY>
InChIKey=MJELOWOAIAAUJT-UHFFFAOYSA-N

> <SMILES>
CCCCCCCCOCCOCCOCCOCCOCCO

> <JCHEM_ACCEPTOR_COUNT>
6

> <JCHEM_DONOR_COUNT>
1

> <JCHEM_ACIDIC_PKA>
15.12

> <JCHEM_BASIC_PKA>
-2.7

> <JCHEM_PHYSIOLOGICAL_CHARGE>
0

> <ALOGPS_LOGP>
2.43

> <JCHEM_LOGP>
2.35

> <ALOGPS_LOGS>
-4.6

> <JCHEM_POLARIZABILITY>
44.31

> <JCHEM_POLAR_SURFACE_AREA>
66.38

> <JCHEM_REFRACTIVITY>
95.76

> <JCHEM_ROTATABLE_BOND_COUNT>
21

> <ALOGPS_SOLUBILITY>
8.58e-03 g/l __ 

$$$$
