OMD
  Mrv0541 02241214012D          

 12 12  0  0  0  0            999 V2000
    1.5156    0.1648    0.0000 C   0  0  0  0  0  0  0  0  0  0  0  0
    0.8011    0.5773    0.0000 C   0  0  0  0  0  0  0  0  0  0  0  0
    0.0866    0.1648    0.0000 C   0  0  0  0  0  0  0  0  0  0  0  0
    0.0866   -0.6602    0.0000 C   0  0  0  0  0  0  0  0  0  0  0  0
   -0.6279   -1.0727    0.0000 C   0  0  0  0  0  0  0  0  0  0  0  0
   -0.6279   -1.8977    0.0000 O   0  0  0  0  0  0  0  0  0  0  0  0
   -1.3423   -0.6602    0.0000 C   0  0  0  0  0  0  0  0  0  0  0  0
   -1.3423    0.1648    0.0000 C   0  0  0  0  0  0  0  0  0  0  0  0
   -0.6279    0.5773    0.0000 C   0  0  0  0  0  0  0  0  0  0  0  0
   -0.6279    1.4023    0.0000 O   0  0  0  0  0  0  0  0  0  0  0  0
    2.2300    0.5773    0.0000 O   0  0  0  0  0  0  0  0  0  0  0  0
    1.5156   -0.6602    0.0000 O   0  0  0  0  0  0  0  0  0  0  0  0
  1  2  1  0  0  0  0
  1 11  2  0  0  0  0
  1 12  1  0  0  0  0
  2  3  1  0  0  0  0
  3  4  2  0  0  0  0
  3  9  1  0  0  0  0
  4  5  1  0  0  0  0
  5  6  1  0  0  0  0
  5  7  2  0  0  0  0
  7  8  1  0  0  0  0
  8  9  2  0  0  0  0
  9 10  1  0  0  0  0
M  END
> <DRUGBANK_ID>
DB08327

> <DRUG_GROUPS>
experimental

> <GENERIC_NAME>
2-(3,6-DIHYDROXYPHENYL)ACETIC ACID

> <CHEMICAL_FORMULA>
C8H8O4

> <MOLECULAR_WEIGHT>
168.1467

> <EXACT_MASS>
168.042258744

> <IUPAC_NAME>
2-(2,5-dihydroxyphenyl)acetic acid

> <IUPAC_TRADITIONAL_NAME>
homogentisic acid

> <INCHI_IDENTIFIER>
InChI=1S/C8H8O4/c9-6-1-2-7(10)5(3-6)4-8(11)12/h1-3,9-10H,4H2,(H,11,12)

> <INCHI_KEY>
InChIKey=IGMNYECMUMZDDF-UHFFFAOYSA-N

> <SMILES>
OC(=O)CC1=CC(O)=CC=C1O

> <JCHEM_ACCEPTOR_COUNT>
4

> <JCHEM_DONOR_COUNT>
3

> <JCHEM_ACIDIC_PKA>
3.57

> <JCHEM_BASIC_PKA>
-5.9

> <JCHEM_PHYSIOLOGICAL_CHARGE>
-1

> <ALOGPS_LOGP>
0.81

> <JCHEM_LOGP>
1

> <ALOGPS_LOGS>
-1.3

> <JCHEM_POLARIZABILITY>
15.6

> <JCHEM_POLAR_SURFACE_AREA>
77.76

> <JCHEM_REFRACTIVITY>
41.33

> <JCHEM_ROTATABLE_BOND_COUNT>
2

> <ALOGPS_SOLUBILITY>
8.10e+00 g/l __ 

$$$$
