LS2
  Mrv0541 02241213522D          

 27 30  0  0  0  0            999 V2000
   -1.2371   -3.1206    0.0000 N   0  0  0  0  0  0  0  0  0  0  0  0
   -1.3234   -2.3001    0.0000 C   0  0  0  0  0  0  0  0  0  0  0  0
   -0.5697   -1.9646    0.0000 C   0  0  0  0  0  0  0  0  0  0  0  0
    0.8073   -2.5777    0.0000 C   0  0  0  0  0  0  0  0  0  0  0  0
    1.2198   -3.2921    0.0000 C   0  0  0  0  0  0  0  0  0  0  0  0
    0.8073   -4.0066    0.0000 C   0  0  0  0  0  0  0  0  0  0  0  0
   -0.0177   -4.0066    0.0000 C   0  0  0  0  0  0  0  0  0  0  0  0
   -0.4302   -3.2921    0.0000 C   0  0  0  0  0  0  0  0  0  0  0  0
   -0.0177   -2.5777    0.0000 C   0  0  0  0  0  0  0  0  0  0  0  0
   -2.0378   -1.8876    0.0000 O   0  0  0  0  0  0  0  0  0  0  0  0
   -0.3982   -1.1576    0.0000 N   0  0  0  0  0  0  0  0  0  0  0  0
    1.3594   -1.9646    0.0000 S   0  0  0  0  0  0  0  0  0  0  0  0
    2.1130   -2.3001    0.0000 C   0  0  0  0  0  0  0  0  0  0  0  0
    2.0268   -3.1206    0.0000 N   0  0  0  0  0  0  0  0  0  0  0  0
   -1.0113   -0.6056    0.0000 N   0  0  0  0  0  0  0  0  0  0  0  0
   -0.8397    0.2014    0.0000 C   0  0  0  0  0  0  0  0  0  0  0  0
   -1.4528    0.7534    0.0000 C   0  0  0  0  0  0  0  0  0  0  0  0
   -1.2813    1.5604    0.0000 C   0  0  0  0  0  0  0  0  0  0  0  0
   -0.4967    1.8154    0.0000 C   0  0  0  0  0  0  0  0  0  0  0  0
    0.1164    1.2633    0.0000 C   0  0  0  0  0  0  0  0  0  0  0  0
   -0.0551    0.4564    0.0000 C   0  0  0  0  0  0  0  0  0  0  0  0
   -0.3252    2.6223    0.0000 C   0  0  0  0  0  0  0  0  0  0  0  0
    0.4595    2.8773    0.0000 S   0  0  0  0  0  0  0  0  0  0  0  0
    0.7144    2.0926    0.0000 O   0  0  0  0  0  0  0  0  0  0  0  0
    0.2045    3.6619    0.0000 O   0  0  0  0  0  0  0  0  0  0  0  0
    1.2441    3.1322    0.0000 N   0  0  0  0  0  0  0  0  0  0  0  0
    1.4156    3.9392    0.0000 C   0  0  0  0  0  0  0  0  0  0  0  0
  1  2  1  0  0  0  0
  1  8  1  0  0  0  0
  2  3  1  0  0  0  0
  2 10  2  0  0  0  0
  3  9  1  0  0  0  0
  3 11  2  0  0  0  0
  4  5  2  0  0  0  0
  4  9  1  0  0  0  0
  4 12  1  0  0  0  0
  5  6  1  0  0  0  0
  5 14  1  0  0  0  0
  6  7  2  0  0  0  0
  7  8  1  0  0  0  0
  8  9  2  0  0  0  0
 11 15  1  0  0  0  0
 12 13  1  0  0  0  0
 13 14  2  0  0  0  0
 15 16  1  0  0  0  0
 16 17  2  0  0  0  0
 16 21  1  0  0  0  0
 17 18  1  0  0  0  0
 18 19  2  0  0  0  0
 19 20  1  0  0  0  0
 19 22  1  0  0  0  0
 20 21  2  0  0  0  0
 22 23  1  0  0  0  0
 23 24  2  0  0  0  0
 23 25  2  0  0  0  0
 23 26  1  0  0  0  0
 26 27  1  0  0  0  0
M  END
> <DRUGBANK_ID>
DB08123

> <DRUG_GROUPS>
experimental

> <GENERIC_NAME>
N-METHYL-{4-[2-(7-OXO-6,7-DIHYDRO-8H-[1,3]THIAZOLO[5,4-E]INDOL-8-YLIDENE)HYDRAZINO]PHENYL}METHANESULFONAMIDE

> <CHEMICAL_FORMULA>
C17H15N5O3S2

> <MOLECULAR_WEIGHT>
401.463

> <EXACT_MASS>
401.061630751

> <IUPAC_NAME>
N-methyl-1-(4-{2-[(8Z)-7-oxo-6H,7H,8H-[1,3]thiazolo[5,4-e]indol-8-ylidene]hydrazin-1-yl}phenyl)methanesulfonamide

> <IUPAC_TRADITIONAL_NAME>
N-methyl-1-(4-{2-[(8Z)-7-oxo-6H-[1,3]thiazolo[5,4-e]indol-8-ylidene]hydrazin-1-yl}phenyl)methanesulfonamide

> <INCHI_IDENTIFIER>
InChI=1S/C17H15N5O3S2/c1-18-27(24,25)8-10-2-4-11(5-3-10)21-22-15-14-12(20-17(15)23)6-7-13-16(14)26-9-19-13/h2-7,9,18,21H,8H2,1H3,(H,20,22,23)

> <INCHI_KEY>
InChIKey=GEWPSTLKJDIUHW-UHFFFAOYSA-N

> <SMILES>
CNS(=O)(=O)CC1=CC=C(N\N=C2/C(=O)NC3=C2C2=C(C=C3)N=CS2)C=C1

> <JCHEM_ACCEPTOR_COUNT>
6

> <JCHEM_DONOR_COUNT>
3

> <JCHEM_ACIDIC_PKA>
9.81

> <JCHEM_BASIC_PKA>
1.62

> <JCHEM_PHYSIOLOGICAL_CHARGE>
0

> <ALOGPS_LOGP>
1.79

> <JCHEM_LOGP>
1.8

> <ALOGPS_LOGS>
-4.1

> <JCHEM_POLARIZABILITY>
40.12

> <JCHEM_POLAR_SURFACE_AREA>
112.55

> <JCHEM_REFRACTIVITY>
104.93

> <JCHEM_ROTATABLE_BOND_COUNT>
4

> <ALOGPS_SOLUBILITY>
3.36e-02 g/l __ 

$$$$
