RS1
  Mrv0541 02241214082D          

 28 30  0  0  0  0            999 V2000
    3.2147   -0.2481    0.0000 C    0  0  0  0  0  0  0  0  0  0  0  0
    3.9292   -0.6606    0.0000 C    0  0  0  0  0  0  0  0  0  0  0  0
    3.9292   -1.4856    0.0000 C    0  0  0  0  0  0  0  0  0  0  0  0
    3.2147   -1.8981    0.0000 C    0  0  0  0  0  0  0  0  0  0  0  0
    2.5003   -1.4856    0.0000 C    0  0  0  0  0  0  0  0  0  0  0  0
    2.5003   -0.6606    0.0000 C    0  0  0  0  0  0  0  0  0  0  0  0
    1.7858   -1.8981    0.0000 O    0  0  0  0  0  0  0  0  0  0  0  0
    1.0713   -1.4856    0.0000 C    0  0  0  0  0  0  0  0  0  0  0  0
    0.3569   -1.8981    0.0000 C    0  0  0  0  0  0  0  0  0  0  0  0
   -0.3576   -1.4856    0.0000 C    0  0  0  0  0  0  0  0  0  0  0  0
   -0.3576   -0.6606    0.0000 C    0  0  0  0  0  0  0  0  0  0  0  0
    0.3569   -0.2481    0.0000 C    0  0  0  0  0  0  0  0  0  0  0  0
    1.0713   -0.6606    0.0000 C    0  0  0  0  0  0  0  0  0  0  0  0
   -1.0721   -0.2481    0.0000 S    0  0  0  0  0  0  0  0  0  0  0  0
   -1.4846   -0.9626    0.0000 O    0  0  0  0  0  0  0  0  0  0  0  0
   -0.6596    0.4664    0.0000 O    0  0  0  0  0  0  0  0  0  0  0  0
   -1.7866    0.1644    0.0000 C    0  0  0  0  0  0  0  0  0  0  0  0
   -1.7866    0.9894    0.0000 C    0  0  0  0  0  0  0  0  0  0  0  0
   -2.0687    1.7646    0.0000 C    0  0  0  0  0  0  0  0  0  0  0  0
   -1.5384    2.3966    0.0000 C    0  0  0  0  0  0  0  0  0  0  0  0
   -0.7260    2.2534    0.0000 O    0  0  0  0  0  0  0  0  0  0  0  0
   -0.4438    1.4781    0.0000 C    0  0  0  0  0  0  0  0  0  0  0  0
   -0.9741    0.8461    0.0000 C    0  0  0  0  0  0  0  0  0  0  0  0
   -2.5990    0.8461    0.0000 C    0  0  0  0  0  0  0  0  0  0  0  0
   -2.8812    0.0709    0.0000 N    0  0  0  0  0  0  0  0  0  0  0  0
   -3.1293    1.4781    0.0000 O    0  0  0  0  0  0  0  0  0  0  0  0
   -3.6937   -0.0724    0.0000 O    0  0  0  0  0  0  0  0  0  0  0  0
    4.6437   -0.2481    0.0000 Cl   0  0  0  0  0  0  0  0  0  0  0  0
  1  2  2  0  0  0  0
  1  6  1  0  0  0  0
  2  3  1  0  0  0  0
  2 28  1  0  0  0  0
  3  4  2  0  0  0  0
  4  5  1  0  0  0  0
  5  6  2  0  0  0  0
  5  7  1  0  0  0  0
  7  8  1  0  0  0  0
  8  9  2  0  0  0  0
  8 13  1  0  0  0  0
  9 10  1  0  0  0  0
 10 11  2  0  0  0  0
 11 12  1  0  0  0  0
 11 14  1  0  0  0  0
 12 13  2  0  0  0  0
 14 15  2  0  0  0  0
 14 16  2  0  0  0  0
 14 17  1  0  0  0  0
 17 18  1  0  0  0  0
 18 19  1  0  0  0  0
 18 23  1  0  0  0  0
 18 24  1  0  0  0  0
 19 20  1  0  0  0  0
 20 21  1  0  0  0  0
 21 22  1  0  0  0  0
 22 23  1  0  0  0  0
 24 25  1  0  0  0  0
 24 26  2  0  0  0  0
 25 27  1  0  0  0  0
M  END
> <DRUGBANK_ID>
DB08490

> <DRUG_GROUPS>
experimental

> <GENERIC_NAME>
4-[4-(4-CHLORO-PHENOXY)-BENZENESULFONYLMETHYL]-TETRAHYDRO-PYRAN-4-CARBOXYLIC ACID HYDROXYAMIDE

> <CHEMICAL_FORMULA>
C19H20ClNO6S

> <MOLECULAR_WEIGHT>
425.883

> <EXACT_MASS>
425.069985774

> <IUPAC_NAME>
4-({[4-(4-chlorophenoxy)benzene]sulfonyl}methyl)-N-hydroxyoxane-4-carboxamide

> <IUPAC_TRADITIONAL_NAME>
4-{[4-(4-chlorophenoxy)benzenesulfonyl]methyl}-N-hydroxyoxane-4-carboxamide

> <INCHI_IDENTIFIER>
InChI=1S/C19H20ClNO6S/c20-14-1-3-15(4-2-14)27-16-5-7-17(8-6-16)28(24,25)13-19(18(22)21-23)9-11-26-12-10-19/h1-8,23H,9-13H2,(H,21,22)

> <INCHI_KEY>
InChIKey=ROSNVSQTEGHUKU-UHFFFAOYSA-N

> <SMILES>
ONC(=O)C1(CS(=O)(=O)C2=CC=C(OC3=CC=C(Cl)C=C3)C=C2)CCOCC1

> <JCHEM_ACCEPTOR_COUNT>
5

> <JCHEM_DONOR_COUNT>
2

> <JCHEM_ACIDIC_PKA>
8.82

> <JCHEM_BASIC_PKA>
-4.1

> <JCHEM_PHYSIOLOGICAL_CHARGE>
0

> <ALOGPS_LOGP>
2.41

> <JCHEM_LOGP>
2.25

> <ALOGPS_LOGS>
-4.6

> <JCHEM_POLARIZABILITY>
41.11

> <JCHEM_POLAR_SURFACE_AREA>
101.93

> <JCHEM_REFRACTIVITY>
104.02

> <JCHEM_ROTATABLE_BOND_COUNT>
6

> <ALOGPS_SOLUBILITY>
1.15e-02 g/l __ 

$$$$
