S98
  Mrv0541 02241214092D          

 22 25  0  0  0  0            999 V2000
    0.2769   -0.9145    0.0000 N   0  0  0  0  0  0  0  0  0  0  0  0
   -0.5077   -0.6596    0.0000 C   0  0  0  0  0  0  0  0  0  0  0  0
   -0.5077    0.1654    0.0000 C   0  0  0  0  0  0  0  0  0  0  0  0
    0.2769    0.4204    0.0000 N   0  0  0  0  0  0  0  0  0  0  0  0
    0.7618   -0.2471    0.0000 C   0  0  0  0  0  0  0  0  0  0  0  0
    1.5868   -0.2471    0.0000 N   0  0  0  0  0  0  0  0  0  0  0  0
    1.9993    0.4674    0.0000 C   0  0  0  0  0  0  0  0  0  0  0  0
    2.8243    0.4674    0.0000 C   0  0  0  0  0  0  0  0  0  0  0  0
   -1.2222    0.5779    0.0000 C   0  0  0  0  0  0  0  0  0  0  0  0
   -1.9367    0.1654    0.0000 C   0  0  0  0  0  0  0  0  0  0  0  0
   -1.9367   -0.6596    0.0000 C   0  0  0  0  0  0  0  0  0  0  0  0
   -2.6512   -1.0721    0.0000 C   0  0  0  0  0  0  0  0  0  0  0  0
   -2.6512   -1.8971    0.0000 O   0  0  0  0  0  0  0  0  0  0  0  0
   -3.3656   -0.6596    0.0000 N   0  0  0  0  0  0  0  0  0  0  0  0
   -3.3656    0.1654    0.0000 C   0  0  0  0  0  0  0  0  0  0  0  0
   -4.0801    0.5779    0.0000 N   0  0  0  0  0  0  0  0  0  0  0  0
   -2.6512    0.5779    0.0000 N   0  0  0  0  0  0  0  0  0  0  0  0
   -1.2222   -1.0721    0.0000 C   0  0  0  0  0  0  0  0  0  0  0  0
    3.3092    1.1348    0.0000 C   0  0  0  0  0  0  0  0  0  0  0  0
    4.0939    0.8799    0.0000 C   0  0  0  0  0  0  0  0  0  0  0  0
    4.0939    0.0549    0.0000 C   0  0  0  0  0  0  0  0  0  0  0  0
    3.3092   -0.2001    0.0000 S   0  0  0  0  0  0  0  0  0  0  0  0
  1  2  1  0  0  0  0
  1  5  1  0  0  0  0
  2  3  2  0  0  0  0
  2 18  1  0  0  0  0
  3  4  1  0  0  0  0
  3  9  1  0  0  0  0
  4  5  2  0  0  0  0
  5  6  1  0  0  0  0
  6  7  1  0  0  0  0
  7  8  1  0  0  0  0
  8 19  2  0  0  0  0
  8 22  1  0  0  0  0
  9 10  2  0  0  0  0
 10 11  1  0  0  0  0
 10 17  1  0  0  0  0
 11 12  1  0  0  0  0
 11 18  2  0  0  0  0
 12 13  2  0  0  0  0
 12 14  1  0  0  0  0
 14 15  1  0  0  0  0
 15 16  1  0  0  0  0
 15 17  2  0  0  0  0
 19 20  1  0  0  0  0
 20 21  2  0  0  0  0
 21 22  1  0  0  0  0
M  END
> <DRUGBANK_ID>
DB08514

> <DRUG_GROUPS>
experimental

> <GENERIC_NAME>
6-amino-2-[(thiophen-2-ylmethyl)amino]-1,7-dihydro-8H-imidazo[4,5-g]quinazolin-8-one

> <CHEMICAL_FORMULA>
C14H12N6OS

> <MOLECULAR_WEIGHT>
312.35

> <EXACT_MASS>
312.079329726

> <IUPAC_NAME>
6-amino-2-[(thiophen-2-ylmethyl)amino]-1H,7H,8H-imidazo[4,5-g]quinazolin-8-one

> <IUPAC_TRADITIONAL_NAME>
6-amino-2-[(thiophen-2-ylmethyl)amino]-1H,7H-imidazo[4,5-g]quinazolin-8-one

> <INCHI_IDENTIFIER>
InChI=1S/C14H12N6OS/c15-13-17-9-5-11-10(4-8(9)12(21)20-13)18-14(19-11)16-6-7-2-1-3-22-7/h1-5H,6H2,(H2,16,18,19)(H3,15,17,20,21)

> <INCHI_KEY>
InChIKey=IQKMJWDYMFWZRF-UHFFFAOYSA-N

> <SMILES>
NC1=NC2=CC3=C(NC(NCC4=CC=CS4)=N3)C=C2C(=O)N1

> <JCHEM_ACCEPTOR_COUNT>
5

> <JCHEM_DONOR_COUNT>
4

> <JCHEM_ACIDIC_PKA>
10.91

> <JCHEM_BASIC_PKA>
4.85

> <JCHEM_PHYSIOLOGICAL_CHARGE>
0

> <ALOGPS_LOGP>
2.02

> <JCHEM_LOGP>
1.58

> <ALOGPS_LOGS>
-3.4

> <JCHEM_POLARIZABILITY>
32.74

> <JCHEM_POLAR_SURFACE_AREA>
108.19

> <JCHEM_REFRACTIVITY>
86.27

> <JCHEM_ROTATABLE_BOND_COUNT>
3

> <ALOGPS_SOLUBILITY>
1.24e-01 g/l __ 

$$$$
