KPV
  Mrv0541 02241213492D          

 14 14  0  0  0  0            999 V2000
   -0.6062   -0.0468    0.0000 C   0  0  0  0  0  0  0  0  0  0  0  0
   -0.6062    0.7782    0.0000 C   0  0  0  0  0  0  0  0  0  0  0  0
   -1.3207    1.1907    0.0000 C   0  0  0  0  0  0  0  0  0  0  0  0
   -2.0352    0.7782    0.0000 C   0  0  0  0  0  0  0  0  0  0  0  0
   -2.0352   -0.0468    0.0000 C   0  0  0  0  0  0  0  0  0  0  0  0
   -1.3207   -0.4593    0.0000 C   0  0  0  0  0  0  0  0  0  0  0  0
    0.1082   -0.4593    0.0000 C   0  0  0  0  0  0  0  0  0  0  0  0
    0.8227   -0.0468    0.0000 C   0  0  0  0  0  0  0  0  0  0  0  0
    1.5372   -0.4593    0.0000 C   0  0  0  0  0  0  0  0  0  0  0  0
    2.2517   -0.0468    0.0000 C   0  0  0  0  0  0  0  0  0  0  0  0
    2.9661   -0.4593    0.0000 C   0  0  0  0  0  0  0  0  0  0  0  0
    3.6806   -0.0468    0.0000 O   0  0  0  0  0  0  0  0  0  0  0  0
    2.9661   -1.2843    0.0000 O   0  0  0  0  0  0  0  0  0  0  0  0
    2.2517    0.7782    0.0000 O   0  0  0  0  0  0  0  0  0  0  0  0
  1  6  2  0  0  0  0
  1  2  1  0  0  0  0
  1  7  1  0  0  0  0
  2  3  2  0  0  0  0
  3  4  1  0  0  0  0
  4  5  2  0  0  0  0
  5  6  1  0  0  0  0
  7  8  1  0  0  0  0
  8  9  1  0  0  0  0
  9 10  1  0  0  0  0
 10 11  1  0  0  0  0
 10 14  2  0  0  0  0
 11 12  2  0  0  0  0
 11 13  1  0  0  0  0
M  END
> <DRUGBANK_ID>
DB08050

> <DRUG_GROUPS>
experimental

> <GENERIC_NAME>
5-PHENYL-2-KETO-VALERIC ACID

> <CHEMICAL_FORMULA>
C11H12O3

> <MOLECULAR_WEIGHT>
192.2112

> <EXACT_MASS>
192.07864425

> <IUPAC_NAME>
2-oxo-5-phenylpentanoic acid

> <IUPAC_TRADITIONAL_NAME>
2-oxo-5-phenylpentanoic acid

> <INCHI_IDENTIFIER>
InChI=1S/C11H12O3/c12-10(11(13)14)8-4-7-9-5-2-1-3-6-9/h1-3,5-6H,4,7-8H2,(H,13,14)

> <INCHI_KEY>
InChIKey=MJXXAPORLGKVLB-UHFFFAOYSA-N

> <SMILES>
OC(=O)C(=O)CCCC1=CC=CC=C1

> <JCHEM_ACCEPTOR_COUNT>
3

> <JCHEM_DONOR_COUNT>
1

> <JCHEM_ACIDIC_PKA>
3.56

> <JCHEM_BASIC_PKA>
-9.7

> <JCHEM_PHYSIOLOGICAL_CHARGE>
-1

> <ALOGPS_LOGP>
2

> <JCHEM_LOGP>
2.79

> <ALOGPS_LOGS>
-3

> <JCHEM_POLARIZABILITY>
19.97

> <JCHEM_POLAR_SURFACE_AREA>
54.37

> <JCHEM_REFRACTIVITY>
51.91

> <JCHEM_ROTATABLE_BOND_COUNT>
5

> <ALOGPS_SOLUBILITY>
1.80e-01 g/l __ 

$$$$
