
  Mrv0541 04281318202D          

 35 41  0  0  1  0            999 V2000
    0.1278    0.0746    0.0000 O   0  0  0  0  0  0  0  0  0  0  0  0
   -0.0288   -0.7354    0.0000 C   0  0  0  0  0  0  0  0  0  0  0  0
   -0.7762   -1.0848    0.0000 N   0  0  0  0  0  0  0  0  0  0  0  0
   -0.6749   -1.9036    0.0000 C   0  0  0  0  0  0  0  0  0  0  0  0
   -1.2777   -2.4668    0.0000 O   0  0  0  0  0  0  0  0  0  0  0  0
    0.1351   -2.0602    0.0000 C   0  0  1  0  0  0  0  0  0  0  0  0
    0.5344   -1.3383    0.0000 C   0  0  2  0  0  0  0  0  0  0  0  0
    1.1407   -0.9495    0.0000 C   0  0  2  0  0  0  0  0  0  0  0  0
    1.9362   -1.4148    0.0000 C   0  0  0  0  0  0  0  0  0  0  0  0
    1.6411   -2.0402    0.0000 C   0  0  0  0  0  0  0  0  0  0  0  0
    0.9106   -1.6699    0.0000 C   0  0  1  0  0  0  0  0  0  0  0  0
    0.9807   -0.1341    0.0000 C   0  0  0  0  0  0  0  0  0  0  0  0
   -1.4982   -0.6855    0.0000 C   0  0  0  0  0  0  0  0  0  0  0  0
   -2.2049   -1.1111    0.0000 C   0  0  2  0  0  0  0  0  0  0  0  0
   -2.1897   -1.9360    0.0000 C   0  0  0  0  0  0  0  0  0  0  0  0
   -2.8965   -2.3615    0.0000 C   0  0  0  0  0  0  0  0  0  0  0  0
   -3.6184   -1.9623    0.0000 C   0  0  0  0  0  0  0  0  0  0  0  0
   -3.6336   -1.1374    0.0000 C   0  0  0  0  0  0  0  0  0  0  0  0
   -2.9269   -0.7118    0.0000 C   0  0  1  0  0  0  0  0  0  0  0  0
   -2.9420    0.1130    0.0000 C   0  0  0  0  0  0  0  0  0  0  0  0
   -2.2353    0.5386    0.0000 N   0  0  0  0  0  0  0  0  0  0  0  0
   -2.2505    1.3635    0.0000 C   0  0  0  0  0  0  0  0  0  0  0  0
   -1.5437    1.7891    0.0000 C   0  0  0  0  0  0  0  0  0  0  0  0
   -0.8218    1.3898    0.0000 N   0  0  0  0  0  0  0  0  0  0  0  0
   -0.1150    1.8154    0.0000 C   0  0  0  0  0  0  0  0  0  0  0  0
   -0.0439    2.6373    0.0000 N   0  0  0  0  0  0  0  0  0  0  0  0
    0.7598    2.8236    0.0000 S   0  0  0  0  0  0  0  0  0  0  0  0
    1.1854    2.1169    0.0000 C   0  0  0  0  0  0  0  0  0  0  0  0
    1.9954    1.9602    0.0000 C   0  0  0  0  0  0  0  0  0  0  0  0
    2.2647    1.1804    0.0000 C   0  0  0  0  0  0  0  0  0  0  0  0
    1.7240    0.5573    0.0000 C   0  0  0  0  0  0  0  0  0  0  0  0
    0.9141    0.7139    0.0000 C   0  0  0  0  0  0  0  0  0  0  0  0
    0.6447    1.4937    0.0000 C   0  0  0  0  0  0  0  0  0  0  0  0
   -0.8066    0.5649    0.0000 C   0  0  0  0  0  0  0  0  0  0  0  0
   -1.5133    0.1393    0.0000 C   0  0  0  0  0  0  0  0  0  0  0  0
  1  2  2  0  0  0  0
  2  3  1  0  0  0  0
  3  4  1  0  0  0  0
  4  5  2  0  0  0  0
  6  4  1  1  0  0  0
  6  7  1  0  0  0  0
  7  2  1  1  0  0  0
  7  8  1  0  0  0  0
  8  9  1  0  0  0  0
  9 10  1  0  0  0  0
 10 11  1  0  0  0  0
  6 11  1  0  0  0  0
 11 12  1  6  0  0  0
  8 12  1  1  0  0  0
  3 13  1  0  0  0  0
 14 13  1  6  0  0  0
 14 15  1  0  0  0  0
 15 16  1  0  0  0  0
 16 17  1  0  0  0  0
 17 18  1  0  0  0  0
 18 19  1  0  0  0  0
 14 19  1  0  0  0  0
 19 20  1  1  0  0  0
 20 21  1  0  0  0  0
 21 22  1  0  0  0  0
 22 23  1  0  0  0  0
 23 24  1  0  0  0  0
 24 25  1  0  0  0  0
 25 26  2  0  0  0  0
 26 27  1  0  0  0  0
 27 28  1  0  0  0  0
 28 29  2  0  0  0  0
 29 30  1  0  0  0  0
 30 31  2  0  0  0  0
 31 32  1  0  0  0  0
 32 33  2  0  0  0  0
 28 33  1  0  0  0  0
 25 33  1  0  0  0  0
 24 34  1  0  0  0  0
 34 35  1  0  0  0  0
 21 35  1  0  0  0  0
M  END
> <DRUGBANK_ID>
DB08815

> <DRUG_GROUPS>
approved

> <GENERIC_NAME>
Lurasidone

> <SALTS>
Lurasidone Hydrochloride 

> <BRANDS>
Latuda 

> <CHEMICAL_FORMULA>
C28H36N4O2S

> <MOLECULAR_WEIGHT>
492.676

> <EXACT_MASS>
492.255897106

> <IUPAC_NAME>
(1R,2S,6R,7S)-4-{[(1R,2R)-2-{[4-(1,2-benzothiazol-3-yl)piperazin-1-yl]methyl}cyclohexyl]methyl}-4-azatricyclo[5.2.1.0²,⁶]decane-3,5-dione

> <IUPAC_TRADITIONAL_NAME>
lurasidone

> <INCHI_IDENTIFIER>
InChI=1S/C28H36N4O2S/c33-27-24-18-9-10-19(15-18)25(24)28(34)32(27)17-21-6-2-1-5-20(21)16-30-11-13-31(14-12-30)26-22-7-3-4-8-23(22)35-29-26/h3-4,7-8,18-21,24-25H,1-2,5-6,9-17H2/t18-,19+,20-,21-,24+,25-/m0/s1

> <INCHI_KEY>
InChIKey=PQXKDMSYBGKCJA-CVTJIBDQSA-N

> <SMILES>
O=C1[C@H]2[C@@H]3CC[C@@H](C3)[C@H]2C(=O)N1C[C@@H]1CCCC[C@H]1CN1CCN(CC1)C1=NSC2=CC=CC=C12

> <JCHEM_ACCEPTOR_COUNT>
5

> <JCHEM_DONOR_COUNT>
0

> <JCHEM_BASIC_PKA>
8.5

> <JCHEM_PHYSIOLOGICAL_CHARGE>
1

> <ALOGPS_LOGP>
5.25

> <JCHEM_LOGP>
4.56

> <ALOGPS_LOGS>
-4.8

> <JCHEM_POLARIZABILITY>
56.2

> <JCHEM_POLAR_SURFACE_AREA>
56.75

> <JCHEM_REFRACTIVITY>
139.33

> <JCHEM_ROTATABLE_BOND_COUNT>
5

> <ALOGPS_SOLUBILITY>
7.89e-03 g/l __ 

$$$$
