TTR
  Mrv0541 02241214142D          

 17 19  0  0  0  0            999 V2000
    1.8303    0.0829    0.0000 C   0  0  0  0  0  0  0  0  0  0  0  0
    1.5754    0.8675    0.0000 C   0  0  0  0  0  0  0  0  0  0  0  0
    0.7684    1.0390    0.0000 C   0  0  0  0  0  0  0  0  0  0  0  0
    0.2164    0.4259    0.0000 C   0  0  0  0  0  0  0  0  0  0  0  0
    0.4713   -0.3587    0.0000 C   0  0  0  0  0  0  0  0  0  0  0  0
   -0.6086    0.4259    0.0000 C   0  0  0  0  0  0  0  0  0  0  0  0
   -0.1961   -0.8436    0.0000 N   0  0  0  0  0  0  0  0  0  0  0  0
   -0.1961   -1.6686    0.0000 C   0  0  0  0  0  0  0  0  0  0  0  0
   -0.9106   -2.0811    0.0000 O   0  0  0  0  0  0  0  0  0  0  0  0
    0.5184   -2.0811    0.0000 C   0  0  0  0  0  0  0  0  0  0  0  0
   -0.8635   -0.3587    0.0000 C   0  0  0  0  0  0  0  0  0  0  0  0
   -1.1606    1.0390    0.0000 C   0  0  0  0  0  0  0  0  0  0  0  0
   -1.6705   -0.5302    0.0000 C   0  0  0  0  0  0  0  0  0  0  0  0
   -1.9676    0.8675    0.0000 C   0  0  0  0  0  0  0  0  0  0  0  0
   -2.2225    0.0829    0.0000 C   0  0  0  0  0  0  0  0  0  0  0  0
    1.2783   -0.5302    0.0000 C   0  0  0  0  0  0  0  0  0  0  0  0
    1.5333   -1.3148    0.0000 O   0  0  0  0  0  0  0  0  0  0  0  0
  1  2  1  0  0  0  0
  1 16  1  0  0  0  0
  2  3  1  0  0  0  0
  3  4  1  0  0  0  0
  4  5  2  0  0  0  0
  4  6  1  0  0  0  0
  5  7  1  0  0  0  0
  5 16  1  0  0  0  0
  6 11  1  0  0  0  0
  6 12  2  0  0  0  0
  7  8  1  0  0  0  0
  7 11  1  0  0  0  0
  8  9  2  0  0  0  0
  8 10  1  0  0  0  0
 11 13  2  0  0  0  0
 12 14  1  0  0  0  0
 13 15  1  0  0  0  0
 14 15  2  0  0  0  0
 16 17  2  0  0  0  0
M  END
> <DRUGBANK_ID>
DB08655

> <DRUG_GROUPS>
experimental

> <GENERIC_NAME>
9-ACETYL-2,3,4,9-TETRAHYDRO-1H-CARBAZOL-1-ONE

> <CHEMICAL_FORMULA>
C14H13NO2

> <MOLECULAR_WEIGHT>
227.2585

> <EXACT_MASS>
227.094628665

> <IUPAC_NAME>
9-acetyl-2,3,4,9-tetrahydro-1H-carbazol-1-one

> <IUPAC_TRADITIONAL_NAME>
9-acetyl-3,4-dihydro-2H-carbazol-1-one

> <INCHI_IDENTIFIER>
InChI=1S/C14H13NO2/c1-9(16)15-12-7-3-2-5-10(12)11-6-4-8-13(17)14(11)15/h2-3,5,7H,4,6,8H2,1H3

> <INCHI_KEY>
InChIKey=MIGJEXKBUJPKJF-UHFFFAOYSA-N

> <SMILES>
CC(=O)N1C2=CC=CC=C2C2=C1C(=O)CCC2

> <JCHEM_ACCEPTOR_COUNT>
2

> <JCHEM_DONOR_COUNT>
0

> <JCHEM_ACIDIC_PKA>
15.91

> <JCHEM_BASIC_PKA>
-3.6

> <JCHEM_PHYSIOLOGICAL_CHARGE>
0

> <ALOGPS_LOGP>
2.7

> <JCHEM_LOGP>
1.62

> <ALOGPS_LOGS>
-3.1

> <JCHEM_POLARIZABILITY>
24.52

> <JCHEM_POLAR_SURFACE_AREA>
39.07

> <JCHEM_REFRACTIVITY>
64.56

> <JCHEM_ROTATABLE_BOND_COUNT>
0

> <ALOGPS_SOLUBILITY>
1.88e-01 g/l __ 

$$$$
