[NO NAME]
  Mrv0541 02271202182D          
Created with ChemWriter - http://chemwriter.com
 32 33  0  0  1  0            999 V2000
    2.2540   -0.3771    0.0000 F   0  0  0  0  0  0  0  0  0  0  0  0
    3.9040   -0.3771    0.0000 F   0  0  0  0  0  0  0  0  0  0  0  0
    4.6909    3.6223    0.0000 O   0  0  0  0  0  0  0  0  0  0  0  0
    2.3413    1.9153    0.0000 O   0  0  0  0  0  0  0  0  0  0  0  0
    2.3644   -1.6146    0.0000 O   0  0  0  0  0  0  0  0  0  0  0  0
    8.7270   -0.7183    0.0000 O   0  0  0  0  0  0  0  0  0  0  0  0
    9.1686    0.6407    0.0000 O   0  0  0  0  0  0  0  0  0  0  0  0
    4.4609    2.1703    0.0000 C   0  0  2  0  0  0  0  0  0  0  0  0
    3.7934    1.6854    0.0000 C   0  0  2  0  0  0  0  0  0  0  0  0
    4.2059    2.9549    0.0000 C   0  0  2  0  0  0  0  0  0  0  0  0
    3.1260    2.1703    0.0000 C   0  0  1  0  0  0  0  0  0  0  0  0
    3.3809    2.9549    0.0000 C   0  0  0  0  0  0  0  0  0  0  0  0
    5.2454    1.9153    0.0000 C   0  0  0  0  0  0  0  0  0  0  0  0
    3.7934    0.8604    0.0000 C   0  0  0  0  0  0  0  0  0  0  0  0
    5.8586    2.4674    0.0000 C   0  0  0  0  0  0  0  0  0  0  0  0
    3.0790    0.4479    0.0000 C   0  0  0  0  0  0  0  0  0  0  0  0
    6.6432    2.2125    0.0000 C   0  0  0  0  0  0  0  0  0  0  0  0
    3.0790   -0.3771    0.0000 C   0  0  0  0  0  0  0  0  0  0  0  0
    6.8147    1.4055    0.0000 C   0  0  0  0  0  0  0  0  0  0  0  0
    3.0790   -1.2021    0.0000 C   0  0  0  0  0  0  0  0  0  0  0  0
    7.5993    1.1505    0.0000 C   0  0  0  0  0  0  0  0  0  0  0  0
    7.7708    0.3435    0.0000 C   0  0  0  0  0  0  0  0  0  0  0  0
    8.5555    0.0886    0.0000 C   0  0  0  0  0  0  0  0  0  0  0  0
    2.3644   -2.4396    0.0000 C   0  0  0  0  0  0  0  0  0  0  0  0
    9.5117   -0.9733    0.0000 C   0  0  0  0  0  0  0  0  0  0  0  0
    3.0790   -2.8521    0.0000 C   0  0  0  0  0  0  0  0  0  0  0  0
    1.6500   -2.8521    0.0000 C   0  0  0  0  0  0  0  0  0  0  0  0
   10.1247   -0.4212    0.0000 C   0  0  0  0  0  0  0  0  0  0  0  0
    9.6832   -1.7803    0.0000 C   0  0  0  0  0  0  0  0  0  0  0  0
    3.0790   -3.6771    0.0000 C   0  0  0  0  0  0  0  0  0  0  0  0
    1.6500   -3.6771    0.0000 C   0  0  0  0  0  0  0  0  0  0  0  0
    2.3644   -4.0896    0.0000 C   0  0  0  0  0  0  0  0  0  0  0  0
  1 18  1  0  0  0  0
  2 18  1  0  0  0  0
 10  3  1  6  0  0  0
 11  4  1  6  0  0  0
  5 20  1  0  0  0  0
  5 24  1  0  0  0  0
  6 23  1  0  0  0  0
  6 25  1  0  0  0  0
  7 23  2  0  0  0  0
  8  9  1  0  0  0  0
  8 10  1  0  0  0  0
  8 13  1  6  0  0  0
  9 11  1  0  0  0  0
  9 14  1  1  0  0  0
 10 12  1  0  0  0  0
 11 12  1  0  0  0  0
 13 15  1  0  0  0  0
 14 16  2  0  0  0  0
 15 17  2  0  0  0  0
 16 18  1  0  0  0  0
 17 19  1  0  0  0  0
 18 20  1  0  0  0  0
 19 21  1  0  0  0  0
 21 22  1  0  0  0  0
 22 23  1  0  0  0  0
 24 26  2  0  0  0  0
 24 27  1  0  0  0  0
 25 28  1  0  0  0  0
 25 29  1  0  0  0  0
 26 30  1  0  0  0  0
 27 31  2  0  0  0  0
 30 32  2  0  0  0  0
 31 32  1  0  0  0  0
M  END
> <DRUGBANK_ID>
DB08819

> <DRUG_GROUPS>
approved

> <GENERIC_NAME>
Tafluprost

> <SYNONYMS>


> <BRANDS>
Saflutan; Taflotan; Zioptan

> <CHEMICAL_FORMULA>
C25H34F2O5

> <MOLECULAR_WEIGHT>
452.5313

> <EXACT_MASS>
452.237430608

> <IUPAC_NAME>
propan-2-yl (5Z)-7-[(1R,2R,3R,5S)-2-[(1E)-3,3-difluoro-4-phenoxybut-1-en-1-yl]-3,5-dihydroxycyclopentyl]hept-5-enoate

> <IUPAC_TRADITIONAL_NAME>
tafluprost

> <INCHI_IDENTIFIER>
InChI=1S/C25H34F2O5/c1-18(2)32-24(30)13-9-4-3-8-12-20-21(23(29)16-22(20)28)14-15-25(26,27)17-31-19-10-6-5-7-11-19/h3,5-8,10-11,14-15,18,20-23,28-29H,4,9,12-13,16-17H2,1-2H3/b8-3-,15-14+/t20-,21-,22+,23-/m1/s1

> <INCHI_KEY>
InChIKey=WSNODXPBBALQOF-VEJSHDCNSA-N

> <SMILES>
CC(C)OC(=O)CCC\C=C/C[C@H]1[C@@H](O)C[C@@H](O)[C@@H]1\C=C\C(F)(F)COC1=CC=CC=C1

> <JCHEM_ACCEPTOR_COUNT>
4

> <JCHEM_DONOR_COUNT>
2

> <JCHEM_ACIDIC_PKA>
14.51

> <JCHEM_BASIC_PKA>
-2.9

> <JCHEM_PHYSIOLOGICAL_CHARGE>
0

> <ALOGPS_LOGP>
4.46

> <JCHEM_LOGP>
4.29

> <ALOGPS_LOGS>
-4.9

> <JCHEM_POLARIZABILITY>
48.65

> <JCHEM_POLAR_SURFACE_AREA>
75.99

> <JCHEM_REFRACTIVITY>
120.59

> <JCHEM_ROTATABLE_BOND_COUNT>
13

> <ALOGPS_SOLUBILITY>
5.28e-03 g/l __ 

$$$$
