LJ2
  Mrv0541 02241213522D          

 17 18  0  0  0  0            999 V2000
    2.8096    0.1813    0.0000 C    0  0  0  0  0  0  0  0  0  0  0  0
    3.5241   -0.2313    0.0000 C    0  0  0  0  0  0  0  0  0  0  0  0
    4.2385    0.1812    0.0000 Br   0  0  0  0  0  0  0  0  0  0  0  0
    3.5241   -1.0563    0.0000 C    0  0  0  0  0  0  0  0  0  0  0  0
    4.2385   -1.4688    0.0000 O    0  0  0  0  0  0  0  0  0  0  0  0
    2.8096   -1.4688    0.0000 C    0  0  0  0  0  0  0  0  0  0  0  0
    2.8096   -2.2938    0.0000 Br   0  0  0  0  0  0  0  0  0  0  0  0
    2.0951   -1.0562    0.0000 C    0  0  0  0  0  0  0  0  0  0  0  0
    2.0951   -0.2312    0.0000 C    0  0  0  0  0  0  0  0  0  0  0  0
    1.3806    0.1813    0.0000 C    0  0  0  0  0  0  0  0  0  0  0  0
    0.6662   -0.2313    0.0000 C    0  0  0  0  0  0  0  0  0  0  0  0
   -0.0483    0.1812    0.0000 C    0  0  0  0  0  0  0  0  0  0  0  0
   -0.7628   -0.2313    0.0000 C    0  0  0  0  0  0  0  0  0  0  0  0
   -1.4772    0.1812    0.0000 C    0  0  0  0  0  0  0  0  0  0  0  0
   -1.4772    1.0062    0.0000 C    0  0  0  0  0  0  0  0  0  0  0  0
   -0.7628    1.4187    0.0000 C    0  0  0  0  0  0  0  0  0  0  0  0
   -0.0483    1.0062    0.0000 C    0  0  0  0  0  0  0  0  0  0  0  0
  1  2  2  0  0  0  0
  1  9  1  0  0  0  0
  2  3  1  0  0  0  0
  2  4  1  0  0  0  0
  4  5  1  0  0  0  0
  4  6  2  0  0  0  0
  6  7  1  0  0  0  0
  6  8  1  0  0  0  0
  8  9  2  0  0  0  0
  9 10  1  0  0  0  0
 10 11  2  0  0  0  0
 11 12  1  0  0  0  0
 12 13  2  0  0  0  0
 12 17  1  0  0  0  0
 13 14  1  0  0  0  0
 14 15  2  0  0  0  0
 15 16  1  0  0  0  0
 16 17  2  0  0  0  0
M  END
> <DRUGBANK_ID>
DB08101

> <DRUG_GROUPS>
experimental

> <GENERIC_NAME>
2,6-dibromo-4-[(E)-2-phenylethenyl]phenol

> <CHEMICAL_FORMULA>
C14H10Br2O

> <MOLECULAR_WEIGHT>
354.037

> <EXACT_MASS>
351.909840236

> <IUPAC_NAME>
2,6-dibromo-4-[(E)-2-phenylethenyl]phenol

> <IUPAC_TRADITIONAL_NAME>
2,6-dibromo-4-[(E)-2-phenylethenyl]phenol

> <INCHI_IDENTIFIER>
InChI=1S/C14H10Br2O/c15-12-8-11(9-13(16)14(12)17)7-6-10-4-2-1-3-5-10/h1-9,17H/b7-6+

> <INCHI_KEY>
InChIKey=WMVYUPRIADVLTH-VOTSOKGWSA-N

> <SMILES>
OC1=C(Br)C=C(\C=C\C2=CC=CC=C2)C=C1Br

> <JCHEM_ACCEPTOR_COUNT>
1

> <JCHEM_DONOR_COUNT>
1

> <JCHEM_ACIDIC_PKA>
6.78

> <JCHEM_BASIC_PKA>
-7.4

> <JCHEM_PHYSIOLOGICAL_CHARGE>
-1

> <ALOGPS_LOGP>
5.57

> <JCHEM_LOGP>
5.55

> <ALOGPS_LOGS>
-5.8

> <JCHEM_POLARIZABILITY>
29.48

> <JCHEM_POLAR_SURFACE_AREA>
20.23

> <JCHEM_REFRACTIVITY>
78.74

> <JCHEM_ROTATABLE_BOND_COUNT>
2

> <ALOGPS_SOLUBILITY>
5.90e-04 g/l __ 

$$$$
