5105
  Mrv0541 02241214202D          

 25 26  0  0  0  0            999 V2000
    5.2224    0.8250    0.0000 O   0  0  0  0  0  0  0  0  0  0  0  0
    3.0790   -3.7126    0.0000 O   0  0  0  0  0  0  0  0  0  0  0  0
    4.5080   -2.8876    0.0000 O   0  0  0  0  0  0  0  0  0  0  0  0
    1.6500   -3.7126    0.0000 O   0  0  0  0  0  0  0  0  0  0  0  0
    7.3659    3.7126    0.0000 N   0  0  0  0  0  0  0  0  0  0  0  0
    3.7935   -1.6500    0.0000 N   0  0  0  0  0  0  0  0  0  0  0  0
    8.0804    3.3001    0.0000 C   0  0  0  0  0  0  0  0  0  0  0  0
    7.3659    4.5376    0.0000 C   0  0  0  0  0  0  0  0  0  0  0  0
    8.0804    4.9501    0.0000 C   0  0  0  0  0  0  0  0  0  0  0  0
    8.7949    3.7126    0.0000 C   0  0  0  0  0  0  0  0  0  0  0  0
    8.7949    4.5376    0.0000 C   0  0  0  0  0  0  0  0  0  0  0  0
    6.6515    3.3001    0.0000 C   0  0  0  0  0  0  0  0  0  0  0  0
    6.6515    2.4751    0.0000 C   0  0  0  0  0  0  0  0  0  0  0  0
    5.9370    2.0625    0.0000 C   0  0  0  0  0  0  0  0  0  0  0  0
    7.3659    2.0625    0.0000 C   0  0  0  0  0  0  0  0  0  0  0  0
    5.9370    1.2375    0.0000 C   0  0  0  0  0  0  0  0  0  0  0  0
    7.3659    1.2375    0.0000 C   0  0  0  0  0  0  0  0  0  0  0  0
    6.6515    0.8250    0.0000 C   0  0  0  0  0  0  0  0  0  0  0  0
    5.2224    0.0000    0.0000 C   0  0  0  0  0  0  0  0  0  0  0  0
    4.5080   -0.4125    0.0000 C   0  0  0  0  0  0  0  0  0  0  0  0
    4.5080   -1.2375    0.0000 C   0  0  0  0  0  0  0  0  0  0  0  0
    3.7935   -2.4751    0.0000 C   0  0  0  0  0  0  0  0  0  0  0  0
    3.0790   -2.8876    0.0000 C   0  0  0  0  0  0  0  0  0  0  0  0
    2.3645   -4.1251    0.0000 C   0  0  0  0  0  0  0  0  0  0  0  0
    2.3645   -4.9501    0.0000 C   0  0  0  0  0  0  0  0  0  0  0  0
  1 16  1  0  0  0  0
  1 19  1  0  0  0  0
  2 23  1  0  0  0  0
  2 24  1  0  0  0  0
  3 22  2  0  0  0  0
  4 24  2  0  0  0  0
  5  7  1  0  0  0  0
  5  8  1  0  0  0  0
  5 12  1  0  0  0  0
  6 21  1  0  0  0  0
  6 22  1  0  0  0  0
  7 10  1  0  0  0  0
  8  9  1  0  0  0  0
  9 11  1  0  0  0  0
 10 11  1  0  0  0  0
 12 13  1  0  0  0  0
 13 14  2  0  0  0  0
 13 15  1  0  0  0  0
 14 16  1  0  0  0  0
 15 17  2  0  0  0  0
 16 18  2  0  0  0  0
 17 18  1  0  0  0  0
 19 20  1  0  0  0  0
 20 21  1  0  0  0  0
 22 23  1  0  0  0  0
 24 25  1  0  0  0  0
M  END
> <DRUGBANK_ID>
DB08806

> <DRUG_GROUPS>
approved

> <GENERIC_NAME>
Roxatidine acetate

> <SYNONYMS>
Aceroxatidine; Roxatidina

> <SALTS>
Roxatidine acetate hydrochloride

> <BRANDS>
Roxit

> <CHEMICAL_FORMULA>
C19H28N2O4

> <MOLECULAR_WEIGHT>
348.4366

> <EXACT_MASS>
348.204907394

> <IUPAC_NAME>
({3-[3-(piperidin-1-ylmethyl)phenoxy]propyl}carbamoyl)methyl acetate

> <IUPAC_TRADITIONAL_NAME>
roxatidine

> <INCHI_IDENTIFIER>
InChI=1S/C19H28N2O4/c1-16(22)25-15-19(23)20-9-6-12-24-18-8-5-7-17(13-18)14-21-10-3-2-4-11-21/h5,7-8,13H,2-4,6,9-12,14-15H2,1H3,(H,20,23)

> <INCHI_KEY>
InChIKey=SMTZFNFIKUPEJC-UHFFFAOYSA-N

> <SMILES>
CC(=O)OCC(=O)NCCCOC1=CC=CC(CN2CCCCC2)=C1

> <JCHEM_ACCEPTOR_COUNT>
4

> <JCHEM_DONOR_COUNT>
1

> <JCHEM_ACIDIC_PKA>
14.88

> <JCHEM_BASIC_PKA>
8.83

> <JCHEM_PHYSIOLOGICAL_CHARGE>
1

> <ALOGPS_LOGP>
2.27

> <JCHEM_LOGP>
1.31

> <ALOGPS_LOGS>
-3.8

> <JCHEM_POLARIZABILITY>
39.26

> <JCHEM_POLAR_SURFACE_AREA>
67.87

> <JCHEM_REFRACTIVITY>
96.32

> <JCHEM_ROTATABLE_BOND_COUNT>
10

> <ALOGPS_SOLUBILITY>
6.12e-02 g/l __ 

$$$$
