
  Mrv0541 10081313262D          

 15 15  0  0  0  0            999 V2000
   14.9738   -9.4875    0.0000 C    0  0  0  0  0  0  0  0  0  0  0  0
   14.2725   -9.0750    0.0000 C    0  0  0  0  0  0  0  0  0  0  0  0
   14.9738  -10.3125    0.0000 C    0  0  0  0  0  0  0  0  0  0  0  0
   15.7163   -9.0750    0.0000 C    0  0  0  0  0  0  0  0  0  0  0  0
   13.5713   -9.4875    0.0000 C    0  0  0  0  0  0  0  0  0  0  0  0
   15.7163  -10.7250    0.0000 C    0  0  0  0  0  0  0  0  0  0  0  0
   16.4175   -9.4875    0.0000 C    0  0  0  0  0  0  0  0  0  0  0  0
   13.5713  -10.3125    0.0000 C    0  0  0  0  0  0  0  0  0  0  0  0
   12.8288   -9.0750    0.0000 N    0  0  0  0  0  0  0  0  0  0  0  0
   16.4175  -10.3125    0.0000 C    0  0  0  0  0  0  0  0  0  0  0  0
   12.1143   -9.4875    0.0000 C    0  0  0  0  0  0  0  0  0  0  0  0
   11.3997   -9.0750    0.0000 C    0  0  0  0  0  0  0  0  0  0  0  0
   10.6853   -9.4875    0.0000 Cl   0  0  0  0  0  0  0  0  0  0  0  0
   11.3997   -8.2500    0.0000 Cl   0  0  0  0  0  0  0  0  0  0  0  0
   11.3997   -9.9000    0.0000 Cl   0  0  0  0  0  0  0  0  0  0  0  0
  1  2  1  0  0  0  0
  1  3  2  0  0  0  0
  1  4  1  0  0  0  0
  2  5  1  0  0  0  0
  3  6  1  0  0  0  0
  4  7  2  0  0  0  0
  5  8  1  0  0  0  0
  5  9  1  0  0  0  0
  6 10  2  0  0  0  0
  7 10  1  0  0  0  0
  9 11  2  0  0  0  0
 11 12  1  0  0  0  0
 12 13  1  0  0  0  0
 12 14  1  0  0  0  0
 12 15  1  0  0  0  0
M  END
> <DRUGBANK_ID>
DB08924

> <DRUG_GROUPS>
approved

> <GENERIC_NAME>
Amfecloral

> <SYNONYMS>
Amphecloral

> <BRANDS>
Acutran

> <CHEMICAL_FORMULA>
C11H12Cl3N

> <MOLECULAR_WEIGHT>
264.579

> <EXACT_MASS>
263.00353251

> <IUPAC_NAME>
(E)-(1-phenylpropan-2-yl)(2,2,2-trichloroethylidene)amine

> <IUPAC_TRADITIONAL_NAME>
amfecloral

> <INCHI_IDENTIFIER>
InChI=1/C11H12Cl3N/c1-9(15-8-11(12,13)14)7-10-5-3-2-4-6-10/h2-6,8-9H,7H2,1H3/b15-8+

> <INCHI_KEY>
InChIKey=VBZDETYCYXPOAK-OVCLIPMQNA-N

> <SMILES>
CC(CC1=CC=CC=C1)\N=C\C(Cl)(Cl)Cl

> <JCHEM_ACCEPTOR_COUNT>
1

> <JCHEM_DONOR_COUNT>
0

> <JCHEM_BASIC_PKA>
4.36

> <JCHEM_PHYSIOLOGICAL_CHARGE>
0

> <JCHEM_LOGP>
4.04

> <JCHEM_POLARIZABILITY>
25.36

> <JCHEM_POLAR_SURFACE_AREA>
12.36

> <JCHEM_REFRACTIVITY>
67.97

> <JCHEM_ROTATABLE_BOND_COUNT>
4 __ 

$$$$
