
  Mrv0541 05021313242D          

 55 63  0  0  0  0            999 V2000
   -5.7798    5.2154    0.0000 C   0  0  1  0  0  0  0  0  0  0  0  0
   -6.2990    4.5742    0.0000 C   0  0  2  0  0  0  0  0  0  0  0  0
   -5.8497    3.8823    0.0000 O   0  0  0  0  0  0  0  0  0  0  0  0
   -5.0528    4.0959    0.0000 C   0  0  2  0  0  0  0  0  0  0  0  0
   -5.0097    4.9197    0.0000 C   0  0  2  0  0  0  0  0  0  0  0  0
   -5.9934    6.0123    0.0000 O   0  0  0  0  0  0  0  0  0  0  0  0
   -5.4100    6.5956    0.0000 C   0  0  0  0  0  0  0  0  0  0  0  0
   -7.1240    4.5742    0.0000 C   0  0  0  0  0  0  0  0  0  0  0  0
   -7.5365    5.2887    0.0000 C   0  0  1  0  0  0  0  0  0  0  0  0
   -8.3615    5.2887    0.0000 C   0  0  0  0  0  0  0  0  0  0  0  0
   -8.7740    6.0032    0.0000 N   0  0  0  0  0  0  0  0  0  0  0  0
   -7.1240    6.0032    0.0000 O   0  0  0  0  0  0  0  0  0  0  0  0
   -4.2952    5.3322    0.0000 C   0  0  0  0  0  0  0  0  0  0  0  0
   -3.5807    4.9197    0.0000 C   0  0  0  0  0  0  0  0  0  0  0  0
   -2.8662    5.3322    0.0000 C   0  0  0  0  0  0  0  0  0  0  0  0
   -3.5807    4.0947    0.0000 O   0  0  0  0  0  0  0  0  0  0  0  0
   -2.1518    4.9197    0.0000 C   0  0  0  0  0  0  0  0  0  0  0  0
   -1.4373    5.3322    0.0000 C   0  0  0  0  0  0  0  0  0  0  0  0
   -2.1518    4.0947    0.0000 O   0  0  0  0  0  0  0  0  0  0  0  0
   -1.4373    3.6822    0.0000 C   0  0  1  0  0  0  0  0  0  0  0  0
   -0.7228    4.0947    0.0000 C   0  0  2  0  0  0  0  0  0  0  0  0
   -0.7228    4.9197    0.0000 C   0  0  0  0  0  0  0  0  0  0  0  0
   -0.0084    4.5072    0.0000 H   0  0  0  0  0  0  0  0  0  0  0  0
   -2.1518    3.2697    0.0000 H   0  0  0  0  0  0  0  0  0  0  0  0
   -1.4373    2.8572    0.0000 C   0  0  1  0  0  0  0  0  0  0  0  0
   -0.7228    2.4446    0.0000 C   0  0  1  0  0  0  0  0  0  0  0  0
   -0.0084    2.8572    0.0000 C   0  0  1  0  0  0  0  0  0  0  0  0
   -0.0084    3.6822    0.0000 O   0  0  0  0  0  0  0  0  0  0  0  0
    0.7061    3.2697    0.0000 H   0  0  0  0  0  0  0  0  0  0  0  0
   -2.0207    2.2738    0.0000 O   0  0  0  0  0  0  0  0  0  0  0  0
    0.7061    2.4447    0.0000 C   0  0  2  0  0  0  0  0  0  0  0  0
    0.4926    1.6478    0.0000 C   0  0  1  0  0  0  0  0  0  0  0  0
   -0.2219    1.2353    0.0000 C   0  0  0  0  0  0  0  0  0  0  0  0
   -1.0188    1.4488    0.0000 C   0  0  2  0  0  0  0  0  0  0  0  0
   -1.8157    1.2353    0.0000 C   0  0  0  0  0  0  0  0  0  0  0  0
   -2.2282    0.5208    0.0000 C   0  0  0  0  0  0  0  0  0  0  0  0
   -0.3043    1.8613    0.0000 O   0  0  0  0  0  0  0  0  0  0  0  0
   -0.0908    2.2311    0.0000 O   0  0  0  0  0  0  0  0  0  0  0  0
   -3.3295    0.0589    0.0000 C   0  0  2  0  0  0  0  0  0  0  0  0
   -3.8486    0.7001    0.0000 O   0  0  0  0  0  0  0  0  0  0  0  0
   -4.6188    0.4044    0.0000 C   0  0  2  0  0  0  0  0  0  0  0  0
   -4.5757   -0.4194    0.0000 C   0  0  0  0  0  0  0  0  0  0  0  0
   -3.7788   -0.6329    0.0000 C   0  0  0  0  0  0  0  0  0  0  0  0
   -5.1590   -1.0028    0.0000 C   0  0  0  0  0  0  0  0  0  0  0  0
   -5.3333    0.8169    0.0000 C   0  0  0  0  0  0  0  0  0  0  0  0
   -5.3333    1.6419    0.0000 C   0  0  0  0  0  0  0  0  0  0  0  0
   -4.8911    2.0330    0.0000 C   0  0  2  0  0  0  0  0  0  0  0  0
   -4.1766    3.2706    0.0000 C   0  0  1  0  0  0  0  0  0  0  0  0
   -4.8911    2.8581    0.0000 O   0  0  0  0  0  0  0  0  0  0  0  0
   -4.1766    1.6205    0.0000 C   0  0  0  0  0  0  0  0  0  0  0  0
   -3.4621    2.0330    0.0000 C   0  0  2  0  0  0  0  0  0  0  0  0
   -3.4621    2.8581    0.0000 C   0  0  0  0  0  0  0  0  0  0  0  0
   -2.9245    3.1527    0.0000 C   0  0  0  0  0  0  0  0  0  0  0  0
   -2.7477    1.6205    0.0000 C   0  0  0  0  0  0  0  0  0  0  0  0
   -4.1766    3.6831    0.0000 C   0  0  0  0  0  0  0  0  0  0  0  0
  1  2  1  0  0  0  0
  1  5  1  0  0  0  0
  2  3  1  0  0  0  0
  3  4  1  0  0  0  0
  4  5  1  0  0  0  0
  1  6  1  6  0  0  0
  6  7  1  0  0  0  0
  2  8  1  6  0  0  0
  8  9  1  0  0  0  0
  9 10  1  0  0  0  0
 10 11  1  0  0  0  0
  9 12  1  1  0  0  0
  5 13  1  1  0  0  0
 13 14  1  0  0  0  0
 14 15  1  0  0  0  0
 14 16  2  0  0  0  0
 15 17  1  1  0  0  0
 18 17  1  0  0  0  0
 17 19  1  0  0  0  0
 18 22  1  0  0  0  0
 19 20  1  0  0  0  0
 21 22  1  0  0  0  0
 21 23  1  1  0  0  0
 20 24  1  6  0  0  0
 21 28  1  0  0  0  0
 21 20  1  0  0  0  0
 20 25  1  0  0  0  0
 25 26  1  0  0  0  0
 26 27  1  0  0  0  0
 27 28  1  0  0  0  0
 27 29  1  6  0  0  0
 25 30  1  1  0  0  0
 27 31  1  0  0  0  0
 31 32  1  0  0  0  0
 32 33  1  0  0  0  0
 33 34  1  0  0  0  0
 34 35  1  0  0  0  0
 35 36  1  0  0  0  0
 32 37  1  6  0  0  0
 26 37  1  1  0  0  0
 31 38  1  1  0  0  0
 34 38  1  1  0  0  0
 34 30  1  6  0  0  0
 39 36  1  1  0  0  0
 43 39  1  0  0  0  0
 40 39  1  0  0  0  0
 40 41  1  0  0  0  0
 41 42  1  0  0  0  0
 42 43  1  0  0  0  0
 42 44  2  0  0  0  0
 41 45  1  6  0  0  0
 45 46  1  0  0  0  0
 47 46  1  6  0  0  0
 49 47  1  0  0  0  0
 47 50  1  0  0  0  0
 48 49  1  0  0  0  0
 48 52  1  0  0  0  0
 50 51  1  0  0  0  0
 51 52  1  0  0  0  0
 52 53  2  0  0  0  0
 51 54  1  6  0  0  0
 48 55  1  6  0  0  0
  4 55  1  6  0  0  0
M  END
> <DRUGBANK_ID>
DB08871

> <DRUG_GROUPS>
approved; investigational

> <GENERIC_NAME>
Eribulin

> <SYNONYMS>
2-(3-Amino-2-hydroxypropyl)hexacosahydro-3-methoxy- 26-methyl-20,27-bis(methylene)11,15-18,21-24,28-triepoxy- 7,9-ethano-12,15-methano-9H,15H-furo(3,2-i)furo(2',3'-5,6) pyrano(4,3-b)(1,4)dioxacyclopentacosin-5-(4H)-one; eribulin mesylate; Halaven ; L01XX41

> <BRANDS>
Halaven

> <CHEMICAL_FORMULA>
C40H59NO11

> <MOLECULAR_WEIGHT>
729.8966

> <EXACT_MASS>
729.408811735

> <IUPAC_NAME>
(1S,3S,6S,9S,12S,14R,16R,18S,20R,21R,22S,29S,31R,32S,33R,35R,36S)-20-[(2S)-3-amino-2-hydroxypropyl]-21-methoxy-14-methyl-8,15-dimethylidene-2,19,30,34,37,39,40,41-octaoxanonacyclo[24.9.2.1³,³².1³,³³.1⁶,⁹.1¹²,¹⁶.0¹⁸,²².0²⁹,³⁶.0³¹,³⁵]hentetracontan-24-one

> <IUPAC_TRADITIONAL_NAME>
(1S,3S,6S,9S,12S,14R,16R,18S,20R,21R,22S,29S,31R,32S,33R,35R,36S)-20-[(2S)-3-amino-2-hydroxypropyl]-21-methoxy-14-methyl-8,15-dimethylidene-2,19,30,34,37,39,40,41-octaoxanonacyclo[24.9.2.1³,³².1³,³³.1⁶,⁹.1¹²,¹⁶.0¹⁸,²².0²⁹,³⁶.0³¹,³⁵]hentetracontan-24-one

> <INCHI_IDENTIFIER>
InChI=1S/C40H59NO11/c1-19-11-24-5-7-28-20(2)12-26(45-28)9-10-40-17-33-36(51-40)37-38(50-33)39(52-40)35-29(49-37)8-6-25(47-35)13-22(42)14-27-31(16-30(46-24)21(19)3)48-32(34(27)44-4)15-23(43)18-41/h19,23-39,43H,2-3,5-18,41H2,1,4H3/t19-,23+,24+,25?,26+,27+,28+,29+,30-,31+,32-,33-,34-,35+,36+,37+,38-,39+,40+/m1/s1

> <INCHI_KEY>
InChIKey=UFNVPOGXISZXJD-WVMZDRIUSA-N

> <SMILES>
[H][C@@]12O[C@@]3([H])CCC4CC(=O)C[C@H]5[C@H](C[C@H]6O[C@H](C[C@@H](C)C6=C)CC[C@@H]6O[C@H](CC6=C)CC[C@@]67C[C@@H](O[C@H]1[C@@H](O6)[C@@]3([H])O4)[C@@H]2O7)O[C@H](C[C@H](O)CN)[C@@H]5OC

> <JCHEM_ACCEPTOR_COUNT>
12

> <JCHEM_DONOR_COUNT>
2

> <JCHEM_ACIDIC_PKA>
14.81

> <JCHEM_BASIC_PKA>
9.39

> <JCHEM_PHYSIOLOGICAL_CHARGE>
1

> <ALOGPS_LOGP>
1.26

> <JCHEM_LOGP>
2.31

> <ALOGPS_LOGS>
-4

> <JCHEM_POLARIZABILITY>
77.52

> <JCHEM_POLAR_SURFACE_AREA>
146.39

> <JCHEM_REFRACTIVITY>
186

> <JCHEM_ROTATABLE_BOND_COUNT>
4

> <ALOGPS_SOLUBILITY>
7.98e-02 g/l __ 

$$$$
