J80
  Mrv0541 02241213482D          

 29 31  0  0  0  0            999 V2000
   -5.9350   -1.8285    0.0000 C   0  0  0  0  0  0  0  0  0  0  0  0
   -5.2205   -1.4160    0.0000 C   0  0  0  0  0  0  0  0  0  0  0  0
   -5.2205   -0.5910    0.0000 C   0  0  0  0  0  0  0  0  0  0  0  0
   -4.5061   -0.1785    0.0000 C   0  0  0  0  0  0  0  0  0  0  0  0
   -3.7916   -0.5910    0.0000 C   0  0  0  0  0  0  0  0  0  0  0  0
   -3.7916   -1.4160    0.0000 N   0  0  0  0  0  0  0  0  0  0  0  0
   -4.5061   -1.8285    0.0000 N   0  0  0  0  0  0  0  0  0  0  0  0
   -3.0771   -0.1785    0.0000 N   0  0  0  0  0  0  0  0  0  0  0  0
   -3.0771    0.6465    0.0000 C   0  0  0  0  0  0  0  0  0  0  0  0
   -2.3627    1.0590    0.0000 C   0  0  0  0  0  0  0  0  0  0  0  0
   -1.6482    0.6465    0.0000 C   0  0  0  0  0  0  0  0  0  0  0  0
   -1.6482   -0.1785    0.0000 C   0  0  0  0  0  0  0  0  0  0  0  0
   -2.3627   -0.5910    0.0000 C   0  0  0  0  0  0  0  0  0  0  0  0
   -0.9337    1.0590    0.0000 C   0  0  0  0  0  0  0  0  0  0  0  0
   -0.2192    0.6465    0.0000 C   0  0  0  0  0  0  0  0  0  0  0  0
    0.4952    1.0590    0.0000 C   0  0  0  0  0  0  0  0  0  0  0  0
    1.2097    0.6465    0.0000 C   0  0  0  0  0  0  0  0  0  0  0  0
    1.9242    1.0590    0.0000 O   0  0  0  0  0  0  0  0  0  0  0  0
    2.6386    0.6465    0.0000 C   0  0  0  0  0  0  0  0  0  0  0  0
    3.3531    1.0590    0.0000 C   0  0  0  0  0  0  0  0  0  0  0  0
    4.0676    0.6465    0.0000 C   0  0  0  0  0  0  0  0  0  0  0  0
    4.0676   -0.1785    0.0000 C   0  0  0  0  0  0  0  0  0  0  0  0
    3.3531   -0.5910    0.0000 C   0  0  0  0  0  0  0  0  0  0  0  0
    2.6386   -0.1785    0.0000 C   0  0  0  0  0  0  0  0  0  0  0  0
    4.7820   -0.5910    0.0000 C   0  0  0  0  0  0  0  0  0  0  0  0
    4.7820   -1.4160    0.0000 O   0  0  0  0  0  0  0  0  0  0  0  0
    5.4965   -0.1785    0.0000 O   0  0  0  0  0  0  0  0  0  0  0  0
    6.2110   -0.5910    0.0000 C   0  0  0  0  0  0  0  0  0  0  0  0
    6.9255   -0.1785    0.0000 C   0  0  0  0  0  0  0  0  0  0  0  0
  1  2  1  0  0  0  0
  2  3  1  0  0  0  0
  2  7  2  0  0  0  0
  3  4  2  0  0  0  0
  4  5  1  0  0  0  0
  5  6  2  0  0  0  0
  5  8  1  0  0  0  0
  6  7  1  0  0  0  0
  8  9  1  0  0  0  0
  8 13  1  0  0  0  0
  9 10  1  0  0  0  0
 10 11  1  0  0  0  0
 11 12  1  0  0  0  0
 11 14  1  0  0  0  0
 12 13  1  0  0  0  0
 14 15  1  0  0  0  0
 15 16  1  0  0  0  0
 16 17  1  0  0  0  0
 17 18  1  0  0  0  0
 18 19  1  0  0  0  0
 19 20  2  0  0  0  0
 19 24  1  0  0  0  0
 20 21  1  0  0  0  0
 21 22  2  0  0  0  0
 22 23  1  0  0  0  0
 22 25  1  0  0  0  0
 23 24  2  0  0  0  0
 25 26  2  0  0  0  0
 25 27  1  0  0  0  0
 27 28  1  0  0  0  0
 28 29  1  0  0  0  0
M  END
> <DRUGBANK_ID>
DB08014

> <DRUG_GROUPS>
experimental

> <GENERIC_NAME>
(METHYLPYRIDAZINE PIPERIDINE BUTYLOXYPHENYL)ETHYLACETATE

> <CHEMICAL_FORMULA>
C23H31N3O3

> <MOLECULAR_WEIGHT>
397.5105

> <EXACT_MASS>
397.236541873

> <IUPAC_NAME>
ethyl 4-{4-[1-(6-methylpyridazin-3-yl)piperidin-4-yl]butoxy}benzoate

> <IUPAC_TRADITIONAL_NAME>
ethyl 4-{4-[1-(6-methylpyridazin-3-yl)piperidin-4-yl]butoxy}benzoate

> <INCHI_IDENTIFIER>
InChI=1S/C23H31N3O3/c1-3-28-23(27)20-8-10-21(11-9-20)29-17-5-4-6-19-13-15-26(16-14-19)22-12-7-18(2)24-25-22/h7-12,19H,3-6,13-17H2,1-2H3

> <INCHI_KEY>
InChIKey=AQILFLLHLFBLLG-UHFFFAOYSA-N

> <SMILES>
CCOC(=O)C1=CC=C(OCCCCC2CCN(CC2)C2=NN=C(C)C=C2)C=C1

> <JCHEM_ACCEPTOR_COUNT>
5

> <JCHEM_DONOR_COUNT>
0

> <JCHEM_BASIC_PKA>
4.41

> <JCHEM_PHYSIOLOGICAL_CHARGE>
0

> <ALOGPS_LOGP>
5.05

> <JCHEM_LOGP>
4.34

> <ALOGPS_LOGS>
-4.3

> <JCHEM_POLARIZABILITY>
46.58

> <JCHEM_POLAR_SURFACE_AREA>
64.55

> <JCHEM_REFRACTIVITY>
116.55

> <JCHEM_ROTATABLE_BOND_COUNT>
10

> <ALOGPS_SOLUBILITY>
2.03e-02 g/l __ 

$$$$
