MDW
  Mrv0541 02241213542D          

 29 31  0  0  0  0            999 V2000
   -1.9360   -1.9888    0.0000 C   0  0  0  0  0  0  0  0  0  0  0  0
   -2.6505   -1.5763    0.0000 C   0  0  0  0  0  0  0  0  0  0  0  0
   -3.3649   -1.9888    0.0000 O   0  0  0  0  0  0  0  0  0  0  0  0
   -2.6505   -0.7513    0.0000 C   0  0  0  0  0  0  0  0  0  0  0  0
   -3.3649   -0.3388    0.0000 O   0  0  0  0  0  0  0  0  0  0  0  0
   -3.3649    0.4862    0.0000 C   0  0  0  0  0  0  0  0  0  0  0  0
   -1.9360   -0.3388    0.0000 C   0  0  0  0  0  0  0  0  0  0  0  0
   -1.2215   -0.7513    0.0000 C   0  0  0  0  0  0  0  0  0  0  0  0
   -0.5070   -0.3388    0.0000 C   0  0  2  0  0  0  0  0  0  0  0  0
   -0.5070    0.4862    0.0000 C   0  0  0  0  0  0  0  0  0  0  0  0
    0.2074    0.8987    0.0000 O   0  0  0  0  0  0  0  0  0  0  0  0
   -1.2215    0.8987    0.0000 N   0  0  0  0  0  0  0  0  0  0  0  0
   -1.2215    1.7237    0.0000 O   0  0  0  0  0  0  0  0  0  0  0  0
   -1.2215   -1.5763    0.0000 C   0  0  0  0  0  0  0  0  0  0  0  0
   -0.5070   -1.9888    0.0000 C   0  0  0  0  0  0  0  0  0  0  0  0
    0.2074   -1.5763    0.0000 C   0  0  0  0  0  0  0  0  0  0  0  0
    0.2074   -0.7513    0.0000 N   0  0  0  0  0  0  0  0  0  0  0  0
    0.9219   -0.3388    0.0000 S   0  0  0  0  0  0  0  0  0  0  0  0
    1.3344   -1.0533    0.0000 O   0  0  0  0  0  0  0  0  0  0  0  0
    0.5094    0.3757    0.0000 O   0  0  0  0  0  0  0  0  0  0  0  0
    1.6364    0.0737    0.0000 C   0  0  0  0  0  0  0  0  0  0  0  0
    1.6364    0.8987    0.0000 C   0  0  0  0  0  0  0  0  0  0  0  0
    2.3508    1.3112    0.0000 C   0  0  0  0  0  0  0  0  0  0  0  0
    3.0653    0.8987    0.0000 C   0  0  0  0  0  0  0  0  0  0  0  0
    3.7798    1.3112    0.0000 O   0  0  0  0  0  0  0  0  0  0  0  0
    3.7798    2.1362    0.0000 C   0  0  0  0  0  0  0  0  0  0  0  0
    3.0653    0.0737    0.0000 C   0  0  0  0  0  0  0  0  0  0  0  0
    2.3508   -0.3388    0.0000 C   0  0  0  0  0  0  0  0  0  0  0  0
   -1.0127   -0.0468    0.0000 H   0  0  0  0  0  0  0  0  0  0  0  0
  1  2  1  0  0  0  0
  1 14  2  0  0  0  0
  2  3  1  0  0  0  0
  2  4  2  0  0  0  0
  4  5  1  0  0  0  0
  4  7  1  0  0  0  0
  5  6  1  0  0  0  0
  7  8  2  0  0  0  0
  8  9  1  0  0  0  0
  8 14  1  0  0  0  0
  9 10  1  6  0  0  0
  9 17  1  0  0  0  0
  9 29  1  1  0  0  0
 10 11  2  0  0  0  0
 10 12  1  0  0  0  0
 12 13  1  0  0  0  0
 14 15  1  0  0  0  0
 15 16  1  0  0  0  0
 16 17  1  0  0  0  0
 17 18  1  0  0  0  0
 18 19  2  0  0  0  0
 18 20  2  0  0  0  0
 18 21  1  0  0  0  0
 21 22  1  0  0  0  0
 21 28  2  0  0  0  0
 22 23  2  0  0  0  0
 23 24  1  0  0  0  0
 24 25  1  0  0  0  0
 24 27  2  0  0  0  0
 25 26  1  0  0  0  0
 27 28  1  0  0  0  0
M  END
> <DRUGBANK_ID>
DB08170

> <DRUG_GROUPS>
experimental

> <GENERIC_NAME>
(1R)-N,6-DIHYDROXY-7-METHOXY-2-[(4-METHOXYPHENYL)SULFONYL]-1,2,3,4-TETRAHYDROISOQUINOLINE-1-CARBOXAMIDE

> <CHEMICAL_FORMULA>
C18H20N2O7S

> <MOLECULAR_WEIGHT>
408.426

> <EXACT_MASS>
408.099121694

> <IUPAC_NAME>
(1R)-N,6-dihydroxy-7-methoxy-2-[(4-methoxybenzene)sulfonyl]-1,2,3,4-tetrahydroisoquinoline-1-carboxamide

> <IUPAC_TRADITIONAL_NAME>
(1R)-N,6-dihydroxy-7-methoxy-2-(4-methoxybenzenesulfonyl)-3,4-dihydro-1H-isoquinoline-1-carboxamide

> <INCHI_IDENTIFIER>
InChI=1S/C18H20N2O7S/c1-26-12-3-5-13(6-4-12)28(24,25)20-8-7-11-9-15(21)16(27-2)10-14(11)17(20)18(22)19-23/h3-6,9-10,17,21,23H,7-8H2,1-2H3,(H,19,22)/t17-/m1/s1

> <INCHI_KEY>
InChIKey=AYFCYVLVRYQGME-QGZVFWFLSA-N

> <SMILES>
[H][C@]1(N(CCC2=CC(O)=C(OC)C=C12)S(=O)(=O)C1=CC=C(OC)C=C1)C(=O)NO

> <JCHEM_ACCEPTOR_COUNT>
7

> <JCHEM_DONOR_COUNT>
3

> <JCHEM_ACIDIC_PKA>
8.64

> <JCHEM_BASIC_PKA>
-4.6

> <JCHEM_PHYSIOLOGICAL_CHARGE>
0

> <ALOGPS_LOGP>
1.02

> <JCHEM_LOGP>
1.05

> <ALOGPS_LOGS>
-2.8

> <JCHEM_POLARIZABILITY>
40.33

> <JCHEM_POLAR_SURFACE_AREA>
125.4

> <JCHEM_REFRACTIVITY>
100.26

> <JCHEM_ROTATABLE_BOND_COUNT>
4

> <ALOGPS_SOLUBILITY>
6.02e-01 g/l __ 

$$$$
