X98
  Mrv0541 02241214172D          

 34 38  0  0  0  0            999 V2000
   -0.5006   -1.0110    0.0000 C   0  0  0  0  0  0  0  0  0  0  0  0
    0.2139   -1.4235    0.0000 O   0  0  0  0  0  0  0  0  0  0  0  0
   -0.5006   -0.1860    0.0000 C   0  0  0  0  0  0  0  0  0  0  0  0
    0.2139    0.2265    0.0000 C   0  0  0  0  0  0  0  0  0  0  0  0
    0.2139    1.0515    0.0000 N   0  0  0  0  0  0  0  0  0  0  0  0
   -0.5006    1.4640    0.0000 C   0  0  0  0  0  0  0  0  0  0  0  0
   -0.5006    2.2890    0.0000 C   0  0  0  0  0  0  0  0  0  0  0  0
    0.2139    2.7015    0.0000 N   0  0  0  0  0  0  0  0  0  0  0  0
    0.9284    2.2890    0.0000 C   0  0  0  0  0  0  0  0  0  0  0  0
    1.6428    2.7015    0.0000 C   0  0  0  0  0  0  0  0  0  0  0  0
    2.3573    2.2890    0.0000 C   0  0  0  0  0  0  0  0  0  0  0  0
    2.3573    1.4640    0.0000 C   0  0  0  0  0  0  0  0  0  0  0  0
    1.6428    1.0515    0.0000 C   0  0  0  0  0  0  0  0  0  0  0  0
    0.9284    1.4640    0.0000 C   0  0  0  0  0  0  0  0  0  0  0  0
   -1.2151    1.0515    0.0000 O   0  0  0  0  0  0  0  0  0  0  0  0
   -1.2151    2.7015    0.0000 C   0  0  0  0  0  0  0  0  0  0  0  0
   -1.9295    2.2890    0.0000 C   0  0  0  0  0  0  0  0  0  0  0  0
   -2.6440    2.7015    0.0000 C   0  0  0  0  0  0  0  0  0  0  0  0
   -2.6440    3.5265    0.0000 C   0  0  0  0  0  0  0  0  0  0  0  0
   -1.9295    3.9390    0.0000 C   0  0  0  0  0  0  0  0  0  0  0  0
   -1.2151    3.5265    0.0000 C   0  0  0  0  0  0  0  0  0  0  0  0
   -1.2151   -1.4235    0.0000 N   0  0  0  0  0  0  0  0  0  0  0  0
   -1.3013   -2.2440    0.0000 C   0  0  2  0  0  0  0  0  0  0  0  0
   -0.6882   -2.7960    0.0000 C   0  0  0  0  0  0  0  0  0  0  0  0
   -0.8597   -3.6030    0.0000 O   0  0  0  0  0  0  0  0  0  0  0  0
   -2.1083   -2.4155    0.0000 C   0  0  0  0  0  0  0  0  0  0  0  0
   -2.5208   -1.7011    0.0000 C   0  0  0  0  0  0  0  0  0  0  0  0
   -1.9687   -1.0880    0.0000 C   0  0  0  0  0  0  0  0  0  0  0  0
    0.0964   -2.5411    0.0000 N   0  0  0  0  0  0  0  0  0  0  0  0
    0.3514   -1.7565    0.0000 C   0  0  0  0  0  0  0  0  0  0  0  0
    0.7639   -3.0260    0.0000 C   0  0  0  0  0  0  0  0  0  0  0  0
    1.4313   -2.5411    0.0000 C   0  0  0  0  0  0  0  0  0  0  0  0
    1.1764   -1.7565    0.0000 C   0  0  0  0  0  0  0  0  0  0  0  0
   -0.7561   -2.0347    0.0000 H   0  0  0  0  0  0  0  0  0  0  0  0
  1  2  2  0  0  0  0
  1  3  1  0  0  0  0
  1 22  1  0  0  0  0
  3  4  1  0  0  0  0
  4  5  1  0  0  0  0
  5  6  1  0  0  0  0
  5 14  1  0  0  0  0
  6  7  1  0  0  0  0
  6 15  2  0  0  0  0
  7  8  2  0  0  0  0
  7 16  1  0  0  0  0
  8  9  1  0  0  0  0
  9 10  2  0  0  0  0
  9 14  1  0  0  0  0
 10 11  1  0  0  0  0
 11 12  2  0  0  0  0
 12 13  1  0  0  0  0
 13 14  2  0  0  0  0
 16 17  2  0  0  0  0
 16 21  1  0  0  0  0
 17 18  1  0  0  0  0
 18 19  2  0  0  0  0
 19 20  1  0  0  0  0
 20 21  2  0  0  0  0
 22 23  1  0  0  0  0
 22 28  1  0  0  0  0
 23 24  1  6  0  0  0
 23 26  1  0  0  0  0
 23 34  1  1  0  0  0
 24 25  2  0  0  0  0
 24 29  1  0  0  0  0
 26 27  1  0  0  0  0
 27 28  1  0  0  0  0
 29 30  1  0  0  0  0
 29 31  1  0  0  0  0
 30 33  1  0  0  0  0
 31 32  1  0  0  0  0
 32 33  1  0  0  0  0
M  END
> <DRUGBANK_ID>
DB08738

> <DRUG_GROUPS>
experimental

> <GENERIC_NAME>
1-{3-oxo-3-[(2S)-2-(pyrrolidin-1-ylcarbonyl)pyrrolidin-1-yl]propyl}-3-phenylquinoxalin-2(1H)-one

> <CHEMICAL_FORMULA>
C26H28N4O3

> <MOLECULAR_WEIGHT>
444.5255

> <EXACT_MASS>
444.216140782

> <IUPAC_NAME>
1-{3-oxo-3-[(2S)-2-[(pyrrolidin-1-yl)carbonyl]pyrrolidin-1-yl]propyl}-3-phenyl-1,2-dihydroquinoxalin-2-one

> <IUPAC_TRADITIONAL_NAME>
1-{3-oxo-3-[(2S)-2-[(pyrrolidin-1-yl)carbonyl]pyrrolidin-1-yl]propyl}-3-phenylquinoxalin-2-one

> <INCHI_IDENTIFIER>
InChI=1S/C26H28N4O3/c31-23(29-17-8-13-22(29)25(32)28-15-6-7-16-28)14-18-30-21-12-5-4-11-20(21)27-24(26(30)33)19-9-2-1-3-10-19/h1-5,9-12,22H,6-8,13-18H2/t22-/m0/s1

> <INCHI_KEY>
InChIKey=KWCKZIJGKMCYCI-QFIPXVFZSA-N

> <SMILES>
[H][C@]1(CCCN1C(=O)CCN1C(=O)C(=NC2=CC=CC=C12)C1=CC=CC=C1)C(=O)N1CCCC1

> <JCHEM_ACCEPTOR_COUNT>
4

> <JCHEM_DONOR_COUNT>
0

> <JCHEM_BASIC_PKA>
-1.4

> <JCHEM_PHYSIOLOGICAL_CHARGE>
0

> <ALOGPS_LOGP>
2.31

> <JCHEM_LOGP>
2.25

> <ALOGPS_LOGS>
-3.8

> <JCHEM_POLARIZABILITY>
48.36

> <JCHEM_POLAR_SURFACE_AREA>
73.29

> <JCHEM_REFRACTIVITY>
127.26

> <JCHEM_ROTATABLE_BOND_COUNT>
5

> <ALOGPS_SOLUBILITY>
6.60e-02 g/l __ 

$$$$
