U19
  Mrv0541 02241214142D          

 19 20  0  0  0  0            999 V2000
   -2.2722    0.4370    0.0000 F   0  0  0  0  0  0  0  0  0  0  0  0
   -1.5577    0.8495    0.0000 C   0  0  0  0  0  0  0  0  0  0  0  0
   -1.1452    0.1350    0.0000 F   0  0  0  0  0  0  0  0  0  0  0  0
   -1.9702    1.5640    0.0000 F   0  0  0  0  0  0  0  0  0  0  0  0
   -0.8432    1.2620    0.0000 C   0  0  0  0  0  0  0  0  0  0  0  0
   -0.8432    2.0870    0.0000 C   0  0  0  0  0  0  0  0  0  0  0  0
   -0.1287    2.4995    0.0000 C   0  0  0  0  0  0  0  0  0  0  0  0
   -0.1287    0.8495    0.0000 C   0  0  0  0  0  0  0  0  0  0  0  0
    0.5857    1.2620    0.0000 C   0  0  0  0  0  0  0  0  0  0  0  0
    0.5857    2.0870    0.0000 C   0  0  0  0  0  0  0  0  0  0  0  0
   -0.1287    0.0245    0.0000 N   0  0  0  0  0  0  0  0  0  0  0  0
    0.5857   -0.3880    0.0000 N   0  0  0  0  0  0  0  0  0  0  0  0
    0.5857   -1.2130    0.0000 C   0  0  0  0  0  0  0  0  0  0  0  0
    1.2532   -1.6979    0.0000 C   0  0  0  0  0  0  0  0  0  0  0  0
    2.0378   -1.4430    0.0000 N   0  0  0  0  0  0  0  0  0  0  0  0
    0.9982   -2.4826    0.0000 N   0  0  0  0  0  0  0  0  0  0  0  0
    0.1732   -2.4826    0.0000 N   0  0  0  0  0  0  0  0  0  0  0  0
   -0.0817   -1.6979    0.0000 C   0  0  0  0  0  0  0  0  0  0  0  0
   -0.8663   -1.4430    0.0000 N   0  0  0  0  0  0  0  0  0  0  0  0
  1  2  1  0  0  0  0
  2  3  1  0  0  0  0
  2  4  1  0  0  0  0
  2  5  1  0  0  0  0
  5  6  2  0  0  0  0
  5  8  1  0  0  0  0
  6  7  1  0  0  0  0
  7 10  2  0  0  0  0
  8  9  2  0  0  0  0
  8 11  1  0  0  0  0
  9 10  1  0  0  0  0
 11 12  2  0  0  0  0
 12 13  1  0  0  0  0
 13 14  2  0  0  0  0
 13 18  1  0  0  0  0
 14 15  1  0  0  0  0
 14 16  1  0  0  0  0
 16 17  2  0  0  0  0
 17 18  1  0  0  0  0
 18 19  2  0  0  0  0
M  END
> <DRUGBANK_ID>
DB08671

> <DRUG_GROUPS>
experimental

> <GENERIC_NAME>
5-IMINO-4-(2-TRIFLUOROMETHYL-PHENYLAZO)-5H-PYRAZOL-3-YLAMINE

> <CHEMICAL_FORMULA>
C10H7F3N6

> <MOLECULAR_WEIGHT>
268.198

> <EXACT_MASS>
268.068428869

> <IUPAC_NAME>
3-imino-4-[(E)-2-[2-(trifluoromethyl)phenyl]diazen-1-yl]-3H-pyrazol-5-amine

> <IUPAC_TRADITIONAL_NAME>
5-imino-4-[(E)-2-[2-(trifluoromethyl)phenyl]diazen-1-yl]pyrazol-3-amine

> <INCHI_IDENTIFIER>
InChI=1S/C10H7F3N6/c11-10(12,13)5-3-1-2-4-6(5)16-17-7-8(14)18-19-9(7)15/h1-4,14H,15H2/b14-8?,17-16+

> <INCHI_KEY>
InChIKey=KJHMEAOMPGLBTJ-KGQVPBNKSA-N

> <SMILES>
NC1=C(\N=N\C2=CC=CC=C2C(F)(F)F)C(=N)N=N1

> <JCHEM_ACCEPTOR_COUNT>
6

> <JCHEM_DONOR_COUNT>
2

> <JCHEM_BASIC_PKA>
3.91

> <JCHEM_PHYSIOLOGICAL_CHARGE>
0

> <ALOGPS_LOGP>
3.04

> <JCHEM_LOGP>
2.02

> <ALOGPS_LOGS>
-4.3

> <JCHEM_POLARIZABILITY>
22.01

> <JCHEM_POLAR_SURFACE_AREA>
99.31

> <JCHEM_REFRACTIVITY>
83.5

> <JCHEM_ROTATABLE_BOND_COUNT>
3

> <ALOGPS_SOLUBILITY>
1.32e-02 g/l __ 

$$$$
