SR2
  Mrv0541 02241214102D          

 27 29  0  0  0  0            999 V2000
   -4.4305   -1.3899    0.0000 C    0  0  0  0  0  0  0  0  0  0  0  0
   -5.1450   -1.8024    0.0000 C    0  0  0  0  0  0  0  0  0  0  0  0
   -5.8595   -1.3899    0.0000 Br   0  0  0  0  0  0  0  0  0  0  0  0
   -5.1450   -2.6274    0.0000 C    0  0  0  0  0  0  0  0  0  0  0  0
   -4.4305   -3.0399    0.0000 C    0  0  0  0  0  0  0  0  0  0  0  0
   -3.7161   -2.6274    0.0000 C    0  0  0  0  0  0  0  0  0  0  0  0
   -3.7161   -1.8024    0.0000 C    0  0  0  0  0  0  0  0  0  0  0  0
   -3.0016   -1.3899    0.0000 N    0  0  0  0  0  0  0  0  0  0  0  0
   -3.0016   -0.5649    0.0000 C    0  0  0  0  0  0  0  0  0  0  0  0
   -2.2871   -0.1524    0.0000 C    0  0  0  0  0  0  0  0  0  0  0  0
   -1.5726   -0.5649    0.0000 C    0  0  0  0  0  0  0  0  0  0  0  0
   -3.7161   -0.1524    0.0000 N    0  0  0  0  0  0  0  0  0  0  0  0
   -3.7161    0.6726    0.0000 C    0  0  0  0  0  0  0  0  0  0  0  0
   -3.0016    1.0851    0.0000 N    0  0  0  0  0  0  0  0  0  0  0  0
   -2.2871    0.6726    0.0000 C    0  0  0  0  0  0  0  0  0  0  0  0
   -1.5726    1.0851    0.0000 C    0  0  0  0  0  0  0  0  0  0  0  0
   -0.8582    0.6726    0.0000 C    0  0  0  0  0  0  0  0  0  0  0  0
   -0.8582   -0.1524    0.0000 C    0  0  0  0  0  0  0  0  0  0  0  0
   -0.1437   -0.5649    0.0000 N    0  0  0  0  0  0  0  0  0  0  0  0
    0.5708   -0.1524    0.0000 C    0  0  0  0  0  0  0  0  0  0  0  0
    1.2852   -0.5649    0.0000 O    0  0  0  0  0  0  0  0  0  0  0  0
    0.5708    0.6726    0.0000 C    0  0  0  0  0  0  0  0  0  0  0  0
    1.2852    1.0851    0.0000 C    0  0  0  0  0  0  0  0  0  0  0  0
    1.2852    1.9101    0.0000 C    0  0  0  0  0  0  0  0  0  0  0  0
    1.9997    2.3226    0.0000 N    0  0  0  0  0  0  0  0  0  0  0  0
    1.9997    3.1476    0.0000 C    0  0  0  0  0  0  0  0  0  0  0  0
    2.7142    1.9101    0.0000 C    0  0  0  0  0  0  0  0  0  0  0  0
  1  7  2  0  0  0  0
  1  2  1  0  0  0  0
  2  4  2  0  0  0  0
  3  2  1  0  0  0  0
  4  5  1  0  0  0  0
  6  5  2  0  0  0  0
  7  6  1  0  0  0  0
  8  7  1  0  0  0  0
  9  8  1  0  0  0  0
  9 12  2  0  0  0  0
 10 15  1  0  0  0  0
 10  9  1  0  0  0  0
 11 10  2  0  0  0  0
 13 12  1  0  0  0  0
 14 13  2  0  0  0  0
 15 14  1  0  0  0  0
 16 15  2  0  0  0  0
 17 16  1  0  0  0  0
 18 17  2  0  0  0  0
 18 11  1  0  0  0  0
 19 18  1  0  0  0  0
 20 19  1  0  0  0  0
 20 21  2  0  0  0  0
 22 20  1  0  0  0  0
 23 22  2  0  0  0  0
 24 23  1  0  0  0  0
 25 26  1  0  0  0  0
 25 24  1  0  0  0  0
 27 25  1  0  0  0  0
M  END
> <DRUGBANK_ID>
DB08564

> <DRUG_GROUPS>
experimental

> <GENERIC_NAME>
(2E)-N-{4-[(3-bromophenyl)amino]quinazolin-6-yl}-4-(dimethylamino)but-2-enamide

> <CHEMICAL_FORMULA>
C20H20BrN5O

> <MOLECULAR_WEIGHT>
426.31

> <EXACT_MASS>
425.085122934

> <IUPAC_NAME>
(2E)-N-{4-[(3-bromophenyl)amino]quinazolin-6-yl}-4-(dimethylamino)but-2-enamide

> <IUPAC_TRADITIONAL_NAME>
(2E)-N-{4-[(3-bromophenyl)amino]quinazolin-6-yl}-4-(dimethylamino)but-2-enamide

> <INCHI_IDENTIFIER>
InChI=1S/C20H20BrN5O/c1-26(2)10-4-7-19(27)24-16-8-9-18-17(12-16)20(23-13-22-18)25-15-6-3-5-14(21)11-15/h3-9,11-13H,10H2,1-2H3,(H,24,27)(H,22,23,25)/b7-4+

> <INCHI_KEY>
InChIKey=ZCIXBBSRVLSRJQ-QPJJXVBHSA-N

> <SMILES>
CN(C)C\C=C\C(=O)NC1=CC=C2N=CN=C(NC3=CC(Br)=CC=C3)C2=C1

> <JCHEM_ACCEPTOR_COUNT>
5

> <JCHEM_DONOR_COUNT>
2

> <JCHEM_ACIDIC_PKA>
14.36

> <JCHEM_BASIC_PKA>
8.81

> <JCHEM_PHYSIOLOGICAL_CHARGE>
1

> <ALOGPS_LOGP>
3.81

> <JCHEM_LOGP>
4.04

> <ALOGPS_LOGS>
-4.6

> <JCHEM_POLARIZABILITY>
42.29

> <JCHEM_POLAR_SURFACE_AREA>
70.15

> <JCHEM_REFRACTIVITY>
113.91

> <JCHEM_ROTATABLE_BOND_COUNT>
6

> <ALOGPS_SOLUBILITY>
1.17e-02 g/l __ 

$$$$
