801
  Mrv0541 02231215012D          

 24 26  0  0  0  0            999 V2000
    4.0267   -2.3989    0.0000 Cl   0  0  0  0  0  0  0  0  0  0  0  0
    2.8159    2.2807    0.0000 F    0  0  0  0  0  0  0  0  0  0  0  0
    1.6936    1.0712    0.0000 F    0  0  0  0  0  0  0  0  0  0  0  0
    1.6500    2.2371    0.0000 F    0  0  0  0  0  0  0  0  0  0  0  0
    4.2399    2.3989    0.0000 O    0  0  0  0  0  0  0  0  0  0  0  0
    3.6638    0.9312    0.0000 N    0  0  0  0  0  0  0  0  0  0  0  0
    5.5176    0.9312    0.0000 N    0  0  0  0  0  0  0  0  0  0  0  0
    3.8475    0.1269    0.0000 C    0  0  0  0  0  0  0  0  0  0  0  0
    4.5907   -0.2311    0.0000 C    0  0  0  0  0  0  0  0  0  0  0  0
    2.8595    1.1148    0.0000 C    0  0  0  0  0  0  0  0  0  0  0  0
    5.3340    0.1269    0.0000 C    0  0  0  0  0  0  0  0  0  0  0  0
    4.1782    1.5762    0.0000 C    0  0  0  0  0  0  0  0  0  0  0  0
    5.0032    1.5762    0.0000 C    0  0  0  0  0  0  0  0  0  0  0  0
    3.1301   -0.3462    0.0000 C    0  0  0  0  0  0  0  0  0  0  0  0
    4.6682   -1.0869    0.0000 C    0  0  0  0  0  0  0  0  0  0  0  0
    5.9790   -0.3875    0.0000 C    0  0  0  0  0  0  0  0  0  0  0  0
    2.2548    1.6759    0.0000 C    0  0  0  0  0  0  0  0  0  0  0  0
    3.1876   -1.2036    0.0000 C    0  0  0  0  0  0  0  0  0  0  0  0
    3.9619   -1.5765    0.0000 C    0  0  0  0  0  0  0  0  0  0  0  0
    6.7470   -0.0860    0.0000 C    0  0  0  0  0  0  0  0  0  0  0  0
    5.8561   -1.2033    0.0000 C    0  0  0  0  0  0  0  0  0  0  0  0
    7.3920   -0.6004    0.0000 C    0  0  0  0  0  0  0  0  0  0  0  0
    6.5011   -1.7176    0.0000 C    0  0  0  0  0  0  0  0  0  0  0  0
    7.2691   -1.4163    0.0000 C    0  0  0  0  0  0  0  0  0  0  0  0
  1 19  1  0  0  0  0
  2 17  1  0  0  0  0
  3 17  1  0  0  0  0
  4 17  1  0  0  0  0
  5 12  2  0  0  0  0
  6  8  1  0  0  0  0
  6 10  1  0  0  0  0
  6 12  1  0  0  0  0
  7 11  2  0  0  0  0
  7 13  1  0  0  0  0
  8  9  2  0  0  0  0
  8 14  1  0  0  0  0
  9 11  1  0  0  0  0
  9 15  1  0  0  0  0
 10 17  1  0  0  0  0
 11 16  1  0  0  0  0
 12 13  1  0  0  0  0
 14 18  2  0  0  0  0
 15 19  2  0  0  0  0
 16 20  2  0  0  0  0
 16 21  1  0  0  0  0
 18 19  1  0  0  0  0
 20 22  1  0  0  0  0
 21 23  2  0  0  0  0
 22 24  2  0  0  0  0
 23 24  1  0  0  0  0
M  END
> <DRUGBANK_ID>
DB00801

> <DRUG_GROUPS>
approved; illicit; withdrawn

> <GENERIC_NAME>
Halazepam

> <SYNONYMS>
Halazepam; HalazÃ©pam; Halazepam; Halazepamum

> <BRANDS>
Alapryl; Pacinone; Paxipam

> <CHEMICAL_FORMULA>
C17H12ClF3N2O

> <MOLECULAR_WEIGHT>
352.738

> <EXACT_MASS>
352.059025338

> <IUPAC_NAME>
7-chloro-5-phenyl-1-(2,2,2-trifluoroethyl)-2,3-dihydro-1H-1,4-benzodiazepin-2-one

> <IUPAC_TRADITIONAL_NAME>
halazepam

> <INCHI_IDENTIFIER>
InChI=1S/C17H12ClF3N2O/c18-12-6-7-14-13(8-12)16(11-4-2-1-3-5-11)22-9-15(24)23(14)10-17(19,20)21/h1-8H,9-10H2

> <INCHI_KEY>
InChIKey=WYCLKVQLVUQKNZ-UHFFFAOYSA-N

> <SMILES>
FC(F)(F)CN1C2=C(C=C(Cl)C=C2)C(=NCC1=O)C1=CC=CC=C1

> <JCHEM_ACCEPTOR_COUNT>
2

> <JCHEM_DONOR_COUNT>
0

> <JCHEM_ACIDIC_PKA>
18.88

> <JCHEM_BASIC_PKA>
2.33

> <JCHEM_PHYSIOLOGICAL_CHARGE>
0

> <ALOGPS_LOGP>
3.52

> <JCHEM_LOGP>
4.03

> <ALOGPS_LOGS>
-5.3

> <JCHEM_POLARIZABILITY>
31.82

> <JCHEM_POLAR_SURFACE_AREA>
32.67

> <JCHEM_REFRACTIVITY>
85.26

> <JCHEM_ROTATABLE_BOND_COUNT>
3

> <ALOGPS_SOLUBILITY>
1.70e-03 g/l __ 

$$$$
