819
  Mrv0541 02231215012D          

 13 13  0  0  0  0            999 V2000
    5.9518   -0.2872    0.0000 S   0  0  0  0  0  0  0  0  0  0  0  0
    4.4998   -0.5172    0.0000 S   0  0  0  0  0  0  0  0  0  0  0  0
    5.6969   -1.0718    0.0000 O   0  0  0  0  0  0  0  0  0  0  0  0
    6.2068    0.4974    0.0000 O   0  0  0  0  0  0  0  0  0  0  0  0
    2.6062    1.0718    0.0000 O   0  0  0  0  0  0  0  0  0  0  0  0
    3.0477   -0.2872    0.0000 N   0  0  0  0  0  0  0  0  0  0  0  0
    4.9123    0.7524    0.0000 N   0  0  0  0  0  0  0  0  0  0  0  0
    6.7365   -0.5421    0.0000 N   0  0  0  0  0  0  0  0  0  0  0  0
    4.0873    0.7524    0.0000 N   0  0  0  0  0  0  0  0  0  0  0  0
    5.1672   -0.0323    0.0000 C   0  0  0  0  0  0  0  0  0  0  0  0
    3.8324   -0.0323    0.0000 C   0  0  0  0  0  0  0  0  0  0  0  0
    2.4347    0.2648    0.0000 C   0  0  0  0  0  0  0  0  0  0  0  0
    1.6500    0.0099    0.0000 C   0  0  0  0  0  0  0  0  0  0  0  0
  1  3  2  0  0  0  0
  1  4  2  0  0  0  0
  1  8  1  0  0  0  0
  1 10  1  0  0  0  0
  2 10  1  0  0  0  0
  2 11  1  0  0  0  0
  5 12  2  0  0  0  0
  6 11  1  0  0  0  0
  6 12  1  0  0  0  0
  7  9  1  0  0  0  0
  7 10  2  0  0  0  0
  9 11  2  0  0  0  0
 12 13  1  0  0  0  0
M  END
> <DRUGBANK_ID>
DB00819

> <DRUG_GROUPS>
approved

> <GENERIC_NAME>
Acetazolamide

> <SYNONYMS>
Acetazolamid; Acetazolamida ; Acétazolamide; Acetazolamidum

> <SALTS>
Acetazolamide Sodium

> <BRANDS>
Acemit; Acemox; Acetak; Acetamide; Acetazolamax; Avva; Azm; Azol; Azomid; Carbinib; Défiltran; Defiltran; Diabo; Diacarb; Diamox; Diamox Depot; Diamox Sequels; Diazomid; Diluran; Diuramid; Edemox; Glaumox; Glaupax; Glupax; Huma-Zolamide; Iopar-SR; Medene; Oculten; Ödemin; Uramox; Zolmide

> <CHEMICAL_FORMULA>
C4H6N4O3S2

> <MOLECULAR_WEIGHT>
222.245

> <EXACT_MASS>
221.988131458

> <IUPAC_NAME>
N-(5-sulfamoyl-1,3,4-thiadiazol-2-yl)acetamide

> <IUPAC_TRADITIONAL_NAME>
acetazolamide

> <INCHI_IDENTIFIER>
InChI=1S/C4H6N4O3S2/c1-2(9)6-3-7-8-4(12-3)13(5,10)11/h1H3,(H2,5,10,11)(H,6,7,9)

> <INCHI_KEY>
InChIKey=BZKPWHYZMXOIDC-UHFFFAOYSA-N

> <SMILES>
CC(=O)NC1=NN=C(S1)S(N)(=O)=O

> <JCHEM_ACCEPTOR_COUNT>
5

> <JCHEM_DONOR_COUNT>
2

> <JCHEM_ACIDIC_PKA>
6.93

> <JCHEM_BASIC_PKA>
-3.3

> <JCHEM_PHYSIOLOGICAL_CHARGE>
-1

> <ALOGPS_LOGP>
-0.39

> <JCHEM_LOGP>
-1

> <ALOGPS_LOGS>
-1.9

> <JCHEM_POLARIZABILITY>
19.16

> <JCHEM_POLAR_SURFACE_AREA>
115.04

> <JCHEM_REFRACTIVITY>
47.36

> <JCHEM_ROTATABLE_BOND_COUNT>
2

> <ALOGPS_SOLUBILITY>
2.79e+00 g/l __ 

$$$$
