
  Mrv0541 04191212142D          

 22 23  0  0  1  0            999 V2000
   -0.7145    0.4125    0.0000 O    0  0  0  0  0  0  0  0  0  0  0  0
    0.0000    0.0000    0.0000 C    0  0  0  0  0  0  0  0  0  0  0  0
    0.7145    0.4125    0.0000 C    0  0  0  0  0  0  0  0  0  0  0  0
    0.0000   -0.8250    0.0000 O    0  0  0  0  0  0  0  0  0  0  0  0
    0.7145    1.2375    0.0000 O    0  0  0  0  0  0  0  0  0  0  0  0
    1.4290    0.0000    0.0000 C    0  0  0  0  0  0  0  0  0  0  0  0
    1.4290   -0.8250    0.0000 C    0  0  0  0  0  0  0  0  0  0  0  0
    2.1434    0.4125    0.0000 C    0  0  0  0  0  0  0  0  0  0  0  0
    2.8579    0.0001    0.0000 C    0  0  0  0  0  0  0  0  0  0  0  0
    2.8579   -0.8250    0.0000 C    0  0  0  0  0  0  0  0  0  0  0  0
    2.1434   -1.2375    0.0000 C    0  0  0  0  0  0  0  0  0  0  0  0
   -2.0738   -1.3395    0.0000 C    0  0  0  0  0  0  0  0  0  0  0  0
   -1.4289   -0.8250    0.0000 C    0  0  0  0  0  0  0  0  0  0  0  0
   -2.8783    0.3307    0.0000 C    0  0  0  0  0  0  0  0  0  0  0  0
   -2.0740    0.5143    0.0000 C    0  0  0  0  0  0  0  0  0  0  0  0
   -1.4289    0.0000    0.0000 C    0  0  0  0  0  0  0  0  0  0  0  0
   -1.9509   -0.1194    0.0000 N    0  3  0  0  0  0  0  0  0  0  0  0
   -1.2473    1.5548    0.0000 Br   0  5  0  0  0  0  0  0  0  0  0  0
   -3.2908   -0.3838    0.0000 C    0  0  0  0  0  0  0  0  0  0  0  0
   -2.8707   -1.1260    0.0000 C    0  0  0  0  0  0  0  0  0  0  0  0
   -1.7374    0.6774    0.0000 C    0  0  0  0  0  0  0  0  0  0  0  0
   -1.1540   -0.3330    0.0000 C    0  0  0  0  0  0  0  0  0  0  0  0
 16  1  1  0  0  0  0
  2  1  1  0  0  0  0
  3  2  1  0  0  0  0
  3  6  1  0  0  0  0
  3  5  1  0  0  0  0
  2  4  2  0  0  0  0
  7  6  2  0  0  0  0
  6  8  1  0  0  0  0
  7 11  1  0  0  0  0
  8  9  2  0  0  0  0
  9 10  1  0  0  0  0
 10 11  2  0  0  0  0
 13 12  1  0  0  0  0
 12 17  1  0  0  0  0
 16 13  1  0  0  0  0
 15 14  1  0  0  0  0
 14 17  1  0  0  0  0
 15 16  1  0  0  0  0
 14 19  1  0  0  0  0
 12 20  1  0  0  0  0
 20 19  1  0  0  0  0
 17 21  1  0  0  0  0
 17 22  1  0  0  0  0
M  END
> <DRUGBANK_ID>
DB00725

> <DRUG_GROUPS>
approved

> <GENERIC_NAME>
Homatropine Methylbromide

> <SYNONYMS>
8-Methylhomatropinium bromide; Homatropine methylbromide; Methylhomatropine; Methylhomatropine bromide; Omatropina metilbromuro; Tropinium methobromide mandelate

> <CHEMICAL_FORMULA>
C17H24BrNO3

> <MOLECULAR_WEIGHT>
370.281

> <EXACT_MASS>
369.093956286

> <IUPAC_NAME>
3-[(2-hydroxy-2-phenylacetyl)oxy]-8,8-dimethyl-8-azabicyclo[3.2.1]octan-8-ium bromide

> <IUPAC_TRADITIONAL_NAME>
3-[(2-hydroxy-2-phenylacetyl)oxy]-8,8-dimethyl-8-azabicyclo[3.2.1]octan-8-ium bromide

> <INCHI_IDENTIFIER>
InChI=1S/C17H24NO3.BrH/c1-18(2)13-8-9-14(18)11-15(10-13)21-17(20)16(19)12-6-4-3-5-7-12;/h3-7,13-16,19H,8-11H2,1-2H3;1H/q+1;/p-1

> <INCHI_KEY>
InChIKey=FUFVKLQESJNNAN-UHFFFAOYSA-M

> <SMILES>
[Br-].C[N+]1(C)C2CCC1CC(C2)OC(=O)C(O)C1=CC=CC=C1

> <JCHEM_ACCEPTOR_COUNT>
2

> <JCHEM_DONOR_COUNT>
1

> <JCHEM_ACIDIC_PKA>
11.99

> <JCHEM_BASIC_PKA>
-4.1

> <JCHEM_PHYSIOLOGICAL_CHARGE>
1

> <ALOGPS_LOGP>
-1.9

> <JCHEM_LOGP>
-2.6

> <ALOGPS_LOGS>
-4.8

> <JCHEM_POLARIZABILITY>
31.18

> <JCHEM_POLAR_SURFACE_AREA>
46.53

> <JCHEM_REFRACTIVITY>
91.72

> <JCHEM_ROTATABLE_BOND_COUNT>
4

> <ALOGPS_SOLUBILITY>
5.20e-03 g/l __ 

$$$$
