658
  Mrv0541 02231214522D          

  9  8  0  0  1  0            999 V2000
    0.1473    0.8043    0.0000 Cl   0  0  0  0  0  0  0  0  0  0  0  0
    1.9889    1.5189    0.0000 O    0  0  0  0  0  0  0  0  0  0  0  0
    0.4430    3.6804    0.0000 N    0  0  0  0  0  0  0  0  0  0  0  0
    1.5764    0.8043    0.0000 C    0  0  0  0  0  0  0  0  0  0  0  0
    2.4014    0.8043    0.0000 C    0  0  0  0  0  0  0  0  0  0  0  0
    0.8619    0.3918    0.0000 C    0  0  0  0  0  0  0  0  0  0  0  0
    1.1575    4.0929    0.0000 C    0  0  0  0  0  0  0  0  0  0  0  0
    1.8720    3.6804    0.0000 C    0  0  0  0  0  0  0  0  0  0  0  0
    2.5864    4.0929    0.0000 C    0  0  0  0  0  0  0  0  0  0  0  0
  1  6  1  0  0  0  0
  2  4  1  0  0  0  0
  2  5  1  0  0  0  0
  3  7  1  0  0  0  0
  4  5  1  0  0  0  0
  4  6  1  0  0  0  0
  7  8  1  0  0  0  0
  8  9  2  0  0  0  0
M  END
> <DRUGBANK_ID>
DB00658

> <DRUG_GROUPS>
approved

> <GENERIC_NAME>
Sevelamer

> <SYNONYMS>
Sevelamer; Sévélamer; Sevelamero; Sevelamerum

> <SALTS>
sevelamer carbonate; sevelamer hydrochloride

> <BRANDS>
Phosblock; Renagel; Renvela

> <CHEMICAL_FORMULA>
C6H12ClNO

> <MOLECULAR_WEIGHT>
149.619

> <EXACT_MASS>
149.060741718

> <IUPAC_NAME>
2-(chloromethyl)oxirane; prop-2-en-1-amine

> <IUPAC_TRADITIONAL_NAME>
allylamine; epichlorohydrin

> <INCHI_IDENTIFIER>
InChI=1S/C3H5ClO.C3H7N/c4-1-3-2-5-3;1-2-3-4/h3H,1-2H2;2H,1,3-4H2

> <INCHI_KEY>
InChIKey=ZNSIZMQNQCNRBW-UHFFFAOYSA-N

> <SMILES>
NCC=C.ClCC1CO1

> <JCHEM_ACCEPTOR_COUNT>
1

> <JCHEM_DONOR_COUNT>
0

> <JCHEM_BASIC_PKA>
-4.2

> <JCHEM_PHYSIOLOGICAL_CHARGE>
0

> <JCHEM_LOGP>
0.68

> <JCHEM_POLARIZABILITY>
8.38

> <JCHEM_POLAR_SURFACE_AREA>
12.53

> <JCHEM_REFRACTIVITY>
20.06

> <JCHEM_ROTATABLE_BOND_COUNT>
2 __ 

$$$$
