440
  Mrv0541 02231214412D          

 21 22  0  0  0  0            999 V2000
    6.3799    1.6995    0.0000 O   0  0  0  0  0  0  0  0  0  0  0  0
    3.5220    1.6995    0.0000 O   0  0  0  0  0  0  0  0  0  0  0  0
    4.9509    2.5246    0.0000 O   0  0  0  0  0  0  0  0  0  0  0  0
    3.5220   -2.4256    0.0000 N   0  0  0  0  0  0  0  0  0  0  0  0
    2.8075   -1.1880    0.0000 N   0  0  0  0  0  0  0  0  0  0  0  0
    4.9509   -2.4256    0.0000 N   0  0  0  0  0  0  0  0  0  0  0  0
    2.0930   -2.4256    0.0000 N   0  0  0  0  0  0  0  0  0  0  0  0
    4.9509   -0.7755    0.0000 C   0  0  0  0  0  0  0  0  0  0  0  0
    4.9509    0.0495    0.0000 C   0  0  0  0  0  0  0  0  0  0  0  0
    4.2365   -1.1880    0.0000 C   0  0  0  0  0  0  0  0  0  0  0  0
    4.2365    0.4620    0.0000 C   0  0  0  0  0  0  0  0  0  0  0  0
    5.6655    0.4620    0.0000 C   0  0  0  0  0  0  0  0  0  0  0  0
    5.6655    1.2870    0.0000 C   0  0  0  0  0  0  0  0  0  0  0  0
    4.2365    1.2870    0.0000 C   0  0  0  0  0  0  0  0  0  0  0  0
    4.9509    1.6995    0.0000 C   0  0  0  0  0  0  0  0  0  0  0  0
    4.2365   -2.0130    0.0000 C   0  0  0  0  0  0  0  0  0  0  0  0
    3.5220   -0.7755    0.0000 C   0  0  0  0  0  0  0  0  0  0  0  0
    2.8075   -2.0130    0.0000 C   0  0  0  0  0  0  0  0  0  0  0  0
    7.0944    1.2870    0.0000 C   0  0  0  0  0  0  0  0  0  0  0  0
    2.8075    1.2870    0.0000 C   0  0  0  0  0  0  0  0  0  0  0  0
    5.6655    2.9371    0.0000 C   0  0  0  0  0  0  0  0  0  0  0  0
  1 13  1  0  0  0  0
  1 19  1  0  0  0  0
  2 14  1  0  0  0  0
  2 20  1  0  0  0  0
  3 15  1  0  0  0  0
  3 21  1  0  0  0  0
  4 16  2  0  0  0  0
  4 18  1  0  0  0  0
  5 17  1  0  0  0  0
  5 18  2  0  0  0  0
  6 16  1  0  0  0  0
  7 18  1  0  0  0  0
  8  9  1  0  0  0  0
  8 10  1  0  0  0  0
  9 11  2  0  0  0  0
  9 12  1  0  0  0  0
 10 16  1  0  0  0  0
 10 17  2  0  0  0  0
 11 14  1  0  0  0  0
 12 13  2  0  0  0  0
 13 15  1  0  0  0  0
 14 15  2  0  0  0  0
M  END
> <DRUGBANK_ID>
DB00440

> <DRUG_GROUPS>
approved

> <GENERIC_NAME>
Trimethoprim

> <BRANDS>
Alprim; Monotrim; Primsol; Proloprim; Trimpex; Triprim

> <CHEMICAL_FORMULA>
C14H18N4O3

> <MOLECULAR_WEIGHT>
290.3177

> <EXACT_MASS>
290.137890462

> <IUPAC_NAME>
5-[(3,4,5-trimethoxyphenyl)methyl]pyrimidine-2,4-diamine

> <IUPAC_TRADITIONAL_NAME>
trimethoprim

> <INCHI_IDENTIFIER>
InChI=1S/C14H18N4O3/c1-19-10-5-8(6-11(20-2)12(10)21-3)4-9-7-17-14(16)18-13(9)15/h5-7H,4H2,1-3H3,(H4,15,16,17,18)

> <INCHI_KEY>
InChIKey=IEDVJHCEMCRBQM-UHFFFAOYSA-N

> <SMILES>
COC1=CC(CC2=CN=C(N)N=C2N)=CC(OC)=C1OC

> <JCHEM_ACCEPTOR_COUNT>
7

> <JCHEM_DONOR_COUNT>
2

> <JCHEM_ACIDIC_PKA>
17.33

> <JCHEM_BASIC_PKA>
7.16

> <JCHEM_PHYSIOLOGICAL_CHARGE>
1

> <ALOGPS_LOGP>
1.26

> <JCHEM_LOGP>
1.28

> <ALOGPS_LOGS>
-2.7

> <JCHEM_POLARIZABILITY>
29.71

> <JCHEM_POLAR_SURFACE_AREA>
105.51

> <JCHEM_REFRACTIVITY>
81.51

> <JCHEM_ROTATABLE_BOND_COUNT>
5

> <ALOGPS_SOLUBILITY>
6.15e-01 g/l __ 

$$$$
