834
  Mrv0541 02231215022D          

 34 38  0  0  1  0            999 V2000
    7.1785    1.0770    0.0000 O   0  0  0  0  0  0  0  0  0  0  0  0
    2.2020   -2.4777    0.0000 O   0  0  0  0  0  0  0  0  0  0  0  0
    2.3645    1.6905    0.0000 N   0  0  0  0  0  0  0  0  0  0  0  0
    6.6514    0.0405    0.0000 C   0  0  1  0  0  0  0  0  0  0  0  0
    6.6514   -0.7845    0.0000 C   0  0  2  0  0  0  0  0  0  0  0  0
    5.9370   -1.1970    0.0000 C   0  0  1  0  0  0  0  0  0  0  0  0
    7.4321    0.2919    0.0000 C   0  0  2  0  0  0  0  0  0  0  0  0
    5.9370    0.4530    0.0000 C   0  0  0  0  0  0  0  0  0  0  0  0
    7.4321   -1.0359    0.0000 C   0  0  0  0  0  0  0  0  0  0  0  0
    7.9135   -0.3720    0.0000 C   0  0  0  0  0  0  0  0  0  0  0  0
    5.2224    0.0405    0.0000 C   0  0  1  0  0  0  0  0  0  0  0  0
    5.2224   -0.7845    0.0000 C   0  0  0  0  0  0  0  0  0  0  0  0
    5.9502   -2.0563    0.0000 C   0  0  0  0  0  0  0  0  0  0  0  0
    6.6514    0.8655    0.0000 C   0  0  0  0  0  0  0  0  0  0  0  0
    4.4717   -1.2027    0.0000 C   0  0  0  0  0  0  0  0  0  0  0  0
    5.2093   -2.4917    0.0000 C   0  0  0  0  0  0  0  0  0  0  0  0
    4.5080    0.4530    0.0000 C   0  0  0  0  0  0  0  0  0  0  0  0
    4.4651   -2.0620    0.0000 C   0  0  0  0  0  0  0  0  0  0  0  0
    8.1003    0.7757    0.0000 C   0  0  0  0  0  0  0  0  0  0  0  0
    3.7070   -0.7373    0.0000 C   0  0  0  0  0  0  0  0  0  0  0  0
    3.6933   -2.5156    0.0000 C   0  0  0  0  0  0  0  0  0  0  0  0
    2.9250   -1.1728    0.0000 C   0  0  0  0  0  0  0  0  0  0  0  0
    3.7935    0.0405    0.0000 C   0  0  0  0  0  0  0  0  0  0  0  0
    4.5080    1.2780    0.0000 C   0  0  0  0  0  0  0  0  0  0  0  0
    2.9181   -2.0680    0.0000 C   0  0  0  0  0  0  0  0  0  0  0  0
    8.7687    1.2595    0.0000 C   0  0  0  0  0  0  0  0  0  0  0  0
    3.0790    0.4530    0.0000 C   0  0  0  0  0  0  0  0  0  0  0  0
    3.7935    1.6905    0.0000 C   0  0  0  0  0  0  0  0  0  0  0  0
    3.0790    1.2780    0.0000 C   0  0  0  0  0  0  0  0  0  0  0  0
    9.4369    1.7433    0.0000 C   0  0  0  0  0  0  0  0  0  0  0  0
    2.3645    2.5156    0.0000 C   0  0  0  0  0  0  0  0  0  0  0  0
    1.6500    1.2780    0.0000 C   0  0  0  0  0  0  0  0  0  0  0  0
    6.7212   -1.4408    0.0000 H   0  0  0  0  0  0  0  0  0  0  0  0
    6.5110   -1.5226    0.0000 H   0  0  0  0  0  0  0  0  0  0  0  0
  7  1  1  1  0  0  0
  2 25  2  0  0  0  0
  3 29  1  0  0  0  0
  3 31  1  0  0  0  0
  3 32  1  0  0  0  0
  4  5  1  0  0  0  0
  4  7  1  0  0  0  0
  4  8  1  0  0  0  0
  4 14  1  1  0  0  0
  5  6  1  0  0  0  0
  5  9  1  0  0  0  0
  5 33  1  6  0  0  0
  6 12  1  0  0  0  0
  6 13  1  0  0  0  0
  6 34  1  1  0  0  0
  7 10  1  0  0  0  0
  7 19  1  0  0  0  0
  8 11  1  0  0  0  0
  9 10  1  0  0  0  0
 11 12  1  0  0  0  0
 11 17  1  1  0  0  0
 12 15  2  0  0  0  0
 13 16  1  0  0  0  0
 15 18  1  0  0  0  0
 15 20  1  0  0  0  0
 16 18  1  0  0  0  0
 17 23  2  0  0  0  0
 17 24  1  0  0  0  0
 18 21  2  0  0  0  0
 19 26  3  0  0  0  0
 20 22  1  0  0  0  0
 21 25  1  0  0  0  0
 22 25  1  0  0  0  0
 23 27  1  0  0  0  0
 24 28  2  0  0  0  0
 26 30  1  0  0  0  0
 27 29  2  0  0  0  0
 28 29  1  0  0  0  0
M  END
> <DRUGBANK_ID>
DB00834

> <DRUG_GROUPS>
approved; investigational

> <GENERIC_NAME>
Mifepristone

> <SYNONYMS>
Mifepriston; Mifepristona; MifÃ©pristone; Mifepristonum

> <BRANDS>
Corlux; Korlym; Mefipil; Mifegyne; Mifeprex

> <CHEMICAL_FORMULA>
C29H35NO2

> <MOLECULAR_WEIGHT>
429.5937

> <EXACT_MASS>
429.266779369

> <IUPAC_NAME>
(10S,11S,14S,15S,17R)-17-[4-(dimethylamino)phenyl]-14-hydroxy-15-methyl-14-(prop-1-yn-1-yl)tetracyclo[8.7.0.0^{2,7}.0^{11,15}]heptadeca-1,6-dien-5-one

> <IUPAC_TRADITIONAL_NAME>
mifepristone

> <INCHI_IDENTIFIER>
InChI=1S/C29H35NO2/c1-5-15-29(32)16-14-26-24-12-8-20-17-22(31)11-13-23(20)27(24)25(18-28(26,29)2)19-6-9-21(10-7-19)30(3)4/h6-7,9-10,17,24-26,32H,8,11-14,16,18H2,1-4H3/t24-,25+,26-,28-,29-/m0/s1

> <INCHI_KEY>
InChIKey=VKHAHZOOUSRJNA-GCNJZUOMSA-N

> <SMILES>
[H][C@@]12CC[C@@](O)(C#CC)[C@@]1(C)C[C@H](C1=CC=C(C=C1)N(C)C)C1=C3CCC(=O)C=C3CC[C@@]21[H]

> <JCHEM_ACCEPTOR_COUNT>
3

> <JCHEM_DONOR_COUNT>
1

> <JCHEM_ACIDIC_PKA>
12.87

> <JCHEM_BASIC_PKA>
4.89

> <JCHEM_PHYSIOLOGICAL_CHARGE>
0

> <ALOGPS_LOGP>
5.33

> <JCHEM_LOGP>
5.13

> <ALOGPS_LOGS>
-5.1

> <JCHEM_POLARIZABILITY>
50.71

> <JCHEM_POLAR_SURFACE_AREA>
40.54

> <JCHEM_REFRACTIVITY>
132.58

> <JCHEM_ROTATABLE_BOND_COUNT>
3

> <ALOGPS_SOLUBILITY>
3.36e-03 g/l __ 

$$$$
