248
  Mrv0541 02231214332D          

 35 38  0  0  1  0            999 V2000
    2.3788   -0.1484    0.0000 O   0  0  0  0  0  0  0  0  0  0  0  0
    1.6596    1.0864    0.0000 O   0  0  0  0  0  0  0  0  0  0  0  0
    5.2928   -0.1486    0.0000 N   0  0  0  0  0  0  0  0  0  0  0  0
    6.2679   -3.5446    0.0000 N   0  0  0  0  0  0  0  0  0  0  0  0
    3.0885    1.0919    0.0000 N   0  0  0  0  0  0  0  0  0  0  0  0
    2.3692    2.3266    0.0000 N   0  0  0  0  0  0  0  0  0  0  0  0
    4.5079    3.5723    0.0000 N   0  0  0  0  0  0  0  0  0  0  0  0
    4.5651   -1.4203    0.0000 C   0  0  2  0  0  0  0  0  0  0  0  0
    5.2796   -1.0078    0.0000 C   0  0  1  0  0  0  0  0  0  0  0  0
    3.8143   -1.0022    0.0000 C   0  0  0  0  0  0  0  0  0  0  0  0
    3.8077   -0.1429    0.0000 C   0  0  2  0  0  0  0  0  0  0  0  0
    5.9940   -1.4203    0.0000 C   0  0  0  0  0  0  0  0  0  0  0  0
    4.5519    0.2868    0.0000 C   0  0  0  0  0  0  0  0  0  0  0  0
    4.5651   -2.2453    0.0000 C   0  0  0  0  0  0  0  0  0  0  0  0
    5.2796   -2.6578    0.0000 C   0  0  0  0  0  0  0  0  0  0  0  0
    5.9940   -2.2453    0.0000 C   0  0  0  0  0  0  0  0  0  0  0  0
    6.0120    0.2556    0.0000 C   0  0  0  0  0  0  0  0  0  0  0  0
    3.0917    0.2669    0.0000 C   0  0  0  0  0  0  0  0  0  0  0  0
    5.2928   -3.5171    0.0000 C   0  0  0  0  0  0  0  0  0  0  0  0
    3.8143   -2.6635    0.0000 C   0  0  0  0  0  0  0  0  0  0  0  0
    6.6021   -2.7957    0.0000 C   0  0  0  0  0  0  0  0  0  0  0  0
    4.5519   -3.9525    0.0000 C   0  0  0  0  0  0  0  0  0  0  0  0
    3.8077   -3.5228    0.0000 C   0  0  0  0  0  0  0  0  0  0  0  0
    6.0215    1.0806    0.0000 C   0  0  0  0  0  0  0  0  0  0  0  0
    3.8014    1.5071    0.0000 C   0  0  0  0  0  0  0  0  0  0  0  0
    2.3725    1.5016    0.0000 C   0  0  0  0  0  0  0  0  0  0  0  0
    3.7981    2.3321    0.0000 C   0  0  0  0  0  0  0  0  0  0  0  0
    6.7407    1.4848    0.0000 C   0  0  0  0  0  0  0  0  0  0  0  0
    4.5110    2.7473    0.0000 C   0  0  0  0  0  0  0  0  0  0  0  0
    1.6532    2.7364    0.0000 C   0  0  0  0  0  0  0  0  0  0  0  0
    5.2208    3.9876    0.0000 C   0  0  0  0  0  0  0  0  0  0  0  0
    3.7918    3.9821    0.0000 C   0  0  0  0  0  0  0  0  0  0  0  0
    1.6500    3.5614    0.0000 C   0  0  0  0  0  0  0  0  0  0  0  0
    3.9961   -1.7548    0.0000 H   0  0  0  0  0  0  0  0  0  0  0  0
    5.8536   -0.6823    0.0000 H   0  0  0  0  0  0  0  0  0  0  0  0
  1 18  2  0  0  0  0
  2 26  2  0  0  0  0
  3  9  1  0  0  0  0
  3 13  1  0  0  0  0
  3 17  1  0  0  0  0
  4 19  1  0  0  0  0
  4 21  1  0  0  0  0
  5 18  1  0  0  0  0
  5 25  1  0  0  0  0
  5 26  1  0  0  0  0
  6 26  1  0  0  0  0
  6 30  1  0  0  0  0
  7 29  1  0  0  0  0
  7 31  1  0  0  0  0
  7 32  1  0  0  0  0
  8  9  1  0  0  0  0
  8 10  1  0  0  0  0
  8 14  1  0  0  0  0
  8 34  1  6  0  0  0
  9 12  1  0  0  0  0
  9 35  1  1  0  0  0
 10 11  1  0  0  0  0
 11 13  1  0  0  0  0
 11 18  1  1  0  0  0
 12 16  1  0  0  0  0
 14 15  2  0  0  0  0
 14 20  1  0  0  0  0
 15 16  1  0  0  0  0
 15 19  1  0  0  0  0
 16 21  2  0  0  0  0
 17 24  1  0  0  0  0
 19 22  2  0  0  0  0
 20 23  2  0  0  0  0
 22 23  1  0  0  0  0
 24 28  2  0  0  0  0
 25 27  1  0  0  0  0
 27 29  1  0  0  0  0
 30 33  1  0  0  0  0
M  END
> <DRUGBANK_ID>
DB00248

> <DRUG_GROUPS>
approved

> <GENERIC_NAME>
Cabergoline

> <SYNONYMS>
Cabergolina; Cabergolinum

> <BRANDS>
Cabaser; Dostinex

> <CHEMICAL_FORMULA>
C26H37N5O2

> <MOLECULAR_WEIGHT>
451.6043

> <EXACT_MASS>
451.294725453

> <IUPAC_NAME>
1-[3-(dimethylamino)propyl]-3-ethyl-1-{[(2R,4R,7R)-6-(prop-2-en-1-yl)-6,11-diazatetracyclo[7.6.1.0^{2,7}.0^{12,16}]hexadeca-1(16),9,12,14-tetraen-4-yl]carbonyl}urea

> <IUPAC_TRADITIONAL_NAME>
cabergoline

> <INCHI_IDENTIFIER>
InChI=1S/C26H37N5O2/c1-5-11-30-17-19(25(32)31(26(33)27-6-2)13-8-12-29(3)4)14-21-20-9-7-10-22-24(20)18(16-28-22)15-23(21)30/h5,7,9-10,16,19,21,23,28H,1,6,8,11-15,17H2,2-4H3,(H,27,33)/t19-,21-,23-/m1/s1

> <INCHI_KEY>
InChIKey=KORNTPPJEAJQIU-KJXAQDMKSA-N

> <SMILES>
[H][C@@]12CC3=CNC4=CC=CC(=C34)[C@@]1([H])C[C@H](CN2CC=C)C(=O)N(CCCN(C)C)C(=O)NCC

> <JCHEM_ACCEPTOR_COUNT>
4

> <JCHEM_DONOR_COUNT>
2

> <JCHEM_ACIDIC_PKA>
15.25

> <JCHEM_BASIC_PKA>
9.32

> <JCHEM_PHYSIOLOGICAL_CHARGE>
2

> <ALOGPS_LOGP>
2.97

> <JCHEM_LOGP>
2.58

> <ALOGPS_LOGS>
-3.9

> <JCHEM_POLARIZABILITY>
52.5

> <JCHEM_POLAR_SURFACE_AREA>
71.68

> <JCHEM_REFRACTIVITY>
133.5

> <JCHEM_ROTATABLE_BOND_COUNT>
8

> <ALOGPS_SOLUBILITY>
6.40e-02 g/l __ 

$$$$
