791
  Mrv0541 02231215002D          

 15 15  0  0  0  0            999 V2000
    1.6500   -0.3630    0.0000 Cl   0  0  0  0  0  0  0  0  0  0  0  0
    3.0791    2.1120    0.0000 Cl   0  0  0  0  0  0  0  0  0  0  0  0
    3.7935   -1.6005    0.0000 O    0  0  0  0  0  0  0  0  0  0  0  0
    6.6515   -1.6005    0.0000 O    0  0  0  0  0  0  0  0  0  0  0  0
    3.7935    0.0495    0.0000 N    0  0  0  0  0  0  0  0  0  0  0  0
    5.2224   -1.6005    0.0000 N    0  0  0  0  0  0  0  0  0  0  0  0
    5.9370   -0.3630    0.0000 N    0  0  0  0  0  0  0  0  0  0  0  0
    3.0791   -0.3630    0.0000 C    0  0  0  0  0  0  0  0  0  0  0  0
    3.7935    0.8745    0.0000 C    0  0  0  0  0  0  0  0  0  0  0  0
    4.5080   -0.3630    0.0000 C    0  0  0  0  0  0  0  0  0  0  0  0
    2.3645    0.0495    0.0000 C    0  0  0  0  0  0  0  0  0  0  0  0
    3.0791    1.2870    0.0000 C    0  0  0  0  0  0  0  0  0  0  0  0
    4.5080   -1.1880    0.0000 C    0  0  0  0  0  0  0  0  0  0  0  0
    5.2224    0.0495    0.0000 C    0  0  0  0  0  0  0  0  0  0  0  0
    5.9370   -1.1880    0.0000 C    0  0  0  0  0  0  0  0  0  0  0  0
  1 11  1  0  0  0  0
  2 12  1  0  0  0  0
  3 13  2  0  0  0  0
  4 15  2  0  0  0  0
  5  8  1  0  0  0  0
  5  9  1  0  0  0  0
  5 10  1  0  0  0  0
  6 13  1  0  0  0  0
  6 15  1  0  0  0  0
  7 14  1  0  0  0  0
  7 15  1  0  0  0  0
  8 11  1  0  0  0  0
  9 12  1  0  0  0  0
 10 13  1  0  0  0  0
 10 14  2  0  0  0  0
M  END
> <DRUGBANK_ID>
DB00791

> <DRUG_GROUPS>
approved

> <GENERIC_NAME>
Uracil mustard

> <BRANDS>
Uracil Mustard 

> <CHEMICAL_FORMULA>
C8H11Cl2N3O2

> <MOLECULAR_WEIGHT>
252.098

> <EXACT_MASS>
251.022832025

> <IUPAC_NAME>
5-[bis(2-chloroethyl)amino]-1,2,3,4-tetrahydropyrimidine-2,4-dione

> <IUPAC_TRADITIONAL_NAME>
uracil mustard

> <INCHI_IDENTIFIER>
InChI=1S/C8H11Cl2N3O2/c9-1-3-13(4-2-10)6-5-11-8(15)12-7(6)14/h5H,1-4H2,(H2,11,12,14,15)

> <INCHI_KEY>
InChIKey=IDPUKCWIGUEADI-UHFFFAOYSA-N

> <SMILES>
ClCCN(CCCl)C1=CNC(=O)NC1=O

> <JCHEM_ACCEPTOR_COUNT>
3

> <JCHEM_DONOR_COUNT>
2

> <JCHEM_ACIDIC_PKA>
9.05

> <JCHEM_BASIC_PKA>
1.61

> <JCHEM_PHYSIOLOGICAL_CHARGE>
0

> <ALOGPS_LOGP>
0.79

> <JCHEM_LOGP>
0.41

> <ALOGPS_LOGS>
-2.3

> <JCHEM_POLARIZABILITY>
22.91

> <JCHEM_POLAR_SURFACE_AREA>
61.44

> <JCHEM_REFRACTIVITY>
58.35

> <JCHEM_ROTATABLE_BOND_COUNT>
5

> <ALOGPS_SOLUBILITY>
1.32e+00 g/l __ 

$$$$
