327
  Mrv0541 02231214362D          

 24 28  0  0  1  0            999 V2000
    1.9356   -0.2231    0.0000 O   0  0  0  0  0  0  0  0  0  0  0  0
    1.7349   -2.3527    0.0000 O   0  0  0  0  0  0  0  0  0  0  0  0
    1.7349    1.8149    0.0000 O   0  0  0  0  0  0  0  0  0  0  0  0
    5.3440   -1.0939    0.0000 N   0  0  0  0  0  0  0  0  0  0  0  0
    3.2006   -0.6814    0.0000 C   0  0  1  0  0  0  0  0  0  0  0  0
    3.9151   -1.0939    0.0000 C   0  0  2  0  0  0  0  0  0  0  0  0
    4.6296   -0.6814    0.0000 C   0  0  1  0  0  0  0  0  0  0  0  0
    2.4861   -1.0939    0.0000 C   0  0  2  0  0  0  0  0  0  0  0  0
    3.6773   -0.0764    0.0000 C   0  0  0  0  0  0  0  0  0  0  0  0
    3.2006    0.1436    0.0000 C   0  0  0  0  0  0  0  0  0  0  0  0
    3.9151   -1.9190    0.0000 C   0  0  0  0  0  0  0  0  0  0  0  0
    4.6296    0.1436    0.0000 C   0  0  0  0  0  0  0  0  0  0  0  0
    4.8506   -0.0764    0.0000 C   0  0  0  0  0  0  0  0  0  0  0  0
    3.9151    0.5561    0.0000 C   0  0  0  0  0  0  0  0  0  0  0  0
    3.2006   -2.3315    0.0000 C   0  0  0  0  0  0  0  0  0  0  0  0
    2.4861   -1.9190    0.0000 C   0  0  0  0  0  0  0  0  0  0  0  0
    2.4861    0.5561    0.0000 C   0  0  0  0  0  0  0  0  0  0  0  0
    5.9350   -1.7290    0.0000 C   0  0  0  0  0  0  0  0  0  0  0  0
    3.9151    1.3811    0.0000 C   0  0  0  0  0  0  0  0  0  0  0  0
    2.4861    1.3811    0.0000 C   0  0  0  0  0  0  0  0  0  0  0  0
    3.2006    1.7936    0.0000 C   0  0  0  0  0  0  0  0  0  0  0  0
    4.3612   -1.6255    0.0000 H   0  0  0  0  0  0  0  0  0  0  0  0
    4.8675   -1.3334    0.0000 H   0  0  0  0  0  0  0  0  0  0  0  0
    1.8196   -1.2870    0.0000 H   0  0  0  0  0  0  0  0  0  0  0  0
  1  8  1  0  0  0  0
  1 17  1  0  0  0  0
  2 16  2  0  0  0  0
  3 20  1  0  0  0  0
  4  7  1  0  0  0  0
  4 13  1  0  0  0  0
  4 18  1  0  0  0  0
  5  6  1  0  0  0  0
  5  8  1  0  0  0  0
  5  9  1  1  0  0  0
  5 10  1  0  0  0  0
  6  7  1  0  0  0  0
  6 11  1  0  0  0  0
  6 22  1  1  0  0  0
  7 12  1  0  0  0  0
  7 23  1  6  0  0  0
  8 16  1  0  0  0  0
  8 24  1  1  0  0  0
  9 13  1  0  0  0  0
 10 14  2  0  0  0  0
 10 17  1  0  0  0  0
 11 15  1  0  0  0  0
 12 14  1  0  0  0  0
 14 19  1  0  0  0  0
 15 16  1  0  0  0  0
 17 20  2  0  0  0  0
 19 21  2  0  0  0  0
 20 21  1  0  0  0  0
M  END
> <DRUGBANK_ID>
DB00327

> <DRUG_GROUPS>
approved; illicit

> <GENERIC_NAME>
Hydromorphone

> <SYNONYMS>
6-Deoxy-7,8-dihydro-6-oxomorphine; 7,8-Dihydromorphinone; Dihydromorfinon; Dihydromorphinone; Dimorphone; Hidromorfona; Hydromorfona; Hydromorphonum; Idromorfone

> <SALTS>
Hydromorphone Hydrochloride

> <BRANDS>
Dilaudid; Palladone

> <CHEMICAL_FORMULA>
C17H19NO3

> <MOLECULAR_WEIGHT>
285.3377

> <EXACT_MASS>
285.136493479

> <IUPAC_NAME>
(1S,5R,13R,17R)-10-hydroxy-4-methyl-12-oxa-4-azapentacyclo[9.6.1.0^{1,13}.0^{5,17}.0^{7,18}]octadeca-7(18),8,10-trien-14-one

> <IUPAC_TRADITIONAL_NAME>
hydromorphone

> <INCHI_IDENTIFIER>
InChI=1S/C17H19NO3/c1-18-7-6-17-10-3-5-13(20)16(17)21-15-12(19)4-2-9(14(15)17)8-11(10)18/h2,4,10-11,16,19H,3,5-8H2,1H3/t10-,11+,16-,17-/m0/s1

> <INCHI_KEY>
InChIKey=WVLOADHCBXTIJK-YNHQPCIGSA-N

> <SMILES>
[H][C@@]12OC3=C(O)C=CC4=C3[C@@]11CCN(C)[C@]([H])(C4)[C@]1([H])CCC2=O

> <JCHEM_ACCEPTOR_COUNT>
4

> <JCHEM_DONOR_COUNT>
1

> <JCHEM_ACIDIC_PKA>
10.11

> <JCHEM_BASIC_PKA>
8.59

> <JCHEM_PHYSIOLOGICAL_CHARGE>
1

> <ALOGPS_LOGP>
1.69

> <JCHEM_LOGP>
1.62

> <ALOGPS_LOGS>
-1.8

> <JCHEM_POLARIZABILITY>
30.02

> <JCHEM_POLAR_SURFACE_AREA>
49.77

> <JCHEM_REFRACTIVITY>
78.26

> <JCHEM_ROTATABLE_BOND_COUNT>
0

> <ALOGPS_SOLUBILITY>
4.39e+00 g/l __ 

$$$$
