337
  Mrv0541 02231214362D          

 58 61  0  0  1  0            999 V2000
    9.4257   -1.0135    0.0000 Cl   0  0  0  0  0  0  0  0  0  0  0  0
    6.1327   -1.2176    0.0000 O    0  0  0  0  0  0  0  0  0  0  0  0
    4.9555   -2.3949    0.0000 O    0  0  0  0  0  0  0  0  0  0  0  0
    4.0047   -1.9361    0.0000 O    0  0  0  0  0  0  0  0  0  0  0  0
    5.9192   -0.4207    0.0000 O    0  0  0  0  0  0  0  0  0  0  0  0
    5.8030    1.2013    0.0000 O    0  0  0  0  0  0  0  0  0  0  0  0
    6.9297   -0.2643    0.0000 O    0  0  0  0  0  0  0  0  0  0  0  0
    9.7122    0.6115    0.0000 O    0  0  0  0  0  0  0  0  0  0  0  0
    8.7715   -0.0362    0.0000 O    0  0  0  0  0  0  0  0  0  0  0  0
    4.0919    2.8015    0.0000 O    0  0  0  0  0  0  0  0  0  0  0  0
    6.5176    1.6138    0.0000 O    0  0  0  0  0  0  0  0  0  0  0  0
    2.9451    2.8513    0.0000 O    0  0  0  0  0  0  0  0  0  0  0  0
    7.9465    0.7888    0.0000 N    0  0  0  0  0  0  0  0  0  0  0  0
    5.3358   -1.0040    0.0000 C    0  0  1  0  0  0  0  0  0  0  0  0
    6.9424   -1.4411    0.0000 C    0  0  2  0  0  0  0  0  0  0  0  0
    5.5434   -1.8160    0.0000 C    0  0  2  0  0  0  0  0  0  0  0  0
    6.3521   -2.0361    0.0000 C    0  0  0  0  0  0  0  0  0  0  0  0
    6.7161   -0.6342    0.0000 C    0  0  2  0  0  0  0  0  0  0  0  0
    4.7524   -1.5874    0.0000 C    0  0  2  0  0  0  0  0  0  0  0  0
    3.9555   -1.3739    0.0000 C    0  0  0  0  0  0  0  0  0  0  0  0
    3.7420   -0.5769    0.0000 C    0  0  2  0  0  0  0  0  0  0  0  0
    7.7409   -1.6486    0.0000 C    0  0  0  0  0  0  0  0  0  0  0  0
    7.5130   -0.8477    0.0000 C    0  0  0  0  0  0  0  0  0  0  0  0
    7.5297    0.5774    0.0000 C    0  0  1  0  0  0  0  0  0  0  0  0
    7.2320    1.2013    0.0000 C    0  0  1  0  0  0  0  0  0  0  0  0
    8.3050    0.8596    0.0000 C    0  0  0  0  0  0  0  0  0  0  0  0
    7.3866   -0.2350    0.0000 C    0  0  0  0  0  0  0  0  0  0  0  0
    8.9370    0.3293    0.0000 C    0  0  2  0  0  0  0  0  0  0  0  0
    2.9451   -0.7905    0.0000 C    0  0  0  0  0  0  0  0  0  0  0  0
    7.9465   -0.0362    0.0000 C    0  0  0  0  0  0  0  0  0  0  0  0
    8.0185   -0.7653    0.0000 C    0  0  0  0  0  0  0  0  0  0  0  0
    8.7937   -0.4831    0.0000 C    0  0  2  0  0  0  0  0  0  0  0  0
    7.2320    2.0263    0.0000 C    0  0  0  0  0  0  0  0  0  0  0  0
    8.6610    1.2013    0.0000 C    0  0  0  0  0  0  0  0  0  0  0  0
    5.8030    2.0263    0.0000 C    0  0  1  0  0  0  0  0  0  0  0  0
    5.0885    2.4388    0.0000 C    0  0  2  0  0  0  0  0  0  0  0  0
    7.9465    2.4388    0.0000 C    0  0  0  0  0  0  0  0  0  0  0  0
    8.6610    2.0263    0.0000 C    0  0  0  0  0  0  0  0  0  0  0  0
    3.3933   -1.3246    0.0000 C    0  0  0  0  0  0  0  0  0  0  0  0
    6.8977    1.1078    0.0000 C    0  0  0  0  0  0  0  0  0  0  0  0
    6.0853    1.2511    0.0000 C    0  0  0  0  0  0  0  0  0  0  0  0
    4.3741    2.0263    0.0000 C    0  0  2  0  0  0  0  0  0  0  0  0
    6.5176    0.7888    0.0000 C    0  0  0  0  0  0  0  0  0  0  0  0
    2.3617   -0.2072    0.0000 C    0  0  0  0  0  0  0  0  0  0  0  0
    5.1629   -3.1934    0.0000 C    0  0  0  0  0  0  0  0  0  0  0  0
    3.9328   -2.7580    0.0000 C    0  0  0  0  0  0  0  0  0  0  0  0
    3.6596    2.4388    0.0000 C    0  0  0  0  0  0  0  0  0  0  0  0
    2.9451    1.2013    0.0000 C    0  0  2  0  0  0  0  0  0  0  0  0
    5.8030    2.8513    0.0000 C    0  0  0  0  0  0  0  0  0  0  0  0
    2.3617    0.6179    0.0000 C    0  0  0  0  0  0  0  0  0  0  0  0
    5.5549    0.6190    0.0000 C    0  0  0  0  0  0  0  0  0  0  0  0
    2.9451    2.0263    0.0000 C    0  0  0  0  0  0  0  0  0  0  0  0
    2.0795    0.5681    0.0000 C    0  0  0  0  0  0  0  0  0  0  0  0
    2.1232    1.1294    0.0000 C    0  0  0  0  0  0  0  0  0  0  0  0
   10.3442    0.0812    0.0000 C    0  0  0  0  0  0  0  0  0  0  0  0
    1.6500    1.8052    0.0000 C    0  0  0  0  0  0  0  0  0  0  0  0
    5.1724   -0.3646    0.0000 H    0  0  0  0  0  0  0  0  0  0  0  0
    7.1176    0.5513    0.0000 H    0  0  0  0  0  0  0  0  0  0  0  0
 32  1  1  1  0  0  0
  2 14  1  0  0  0  0
  2 18  1  0  0  0  0
 16  3  1  6  0  0  0
  3 45  1  0  0  0  0
 19  4  1  1  0  0  0
  4 46  1  0  0  0  0
 18  5  1  6  0  0  0
  6 35  1  0  0  0  0
  6 43  1  0  0  0  0
  7 23  2  0  0  0  0
 28  8  1  1  0  0  0
  8 55  1  0  0  0  0
  9 30  2  0  0  0  0
 42 10  1  1  0  0  0
 11 43  2  0  0  0  0
 12 52  2  0  0  0  0
 13 25  1  0  0  0  0
 13 30  1  0  0  0  0
 13 34  1  0  0  0  0
 14 16  1  0  0  0  0
 14 19  1  0  0  0  0
 14 57  1  6  0  0  0
 15 17  1  0  0  0  0
 15 18  1  0  0  0  0
 15 22  1  6  0  0  0
 16 17  1  0  0  0  0
 18 23  1  0  0  0  0
 19 20  1  0  0  0  0
 20 21  1  0  0  0  0
 21 29  1  0  0  0  0
 21 39  1  6  0  0  0
 23 30  1  0  0  0  0
 24 26  1  0  0  0  0
 24 27  1  0  0  0  0
 24 40  1  1  0  0  0
 25 33  1  0  0  0  0
 25 43  1  0  0  0  0
 25 58  1  1  0  0  0
 26 28  1  0  0  0  0
 27 31  1  0  0  0  0
 28 32  1  0  0  0  0
 29 44  1  0  0  0  0
 31 32  1  0  0  0  0
 33 37  1  0  0  0  0
 34 38  1  0  0  0  0
 35 36  1  0  0  0  0
 35 41  1  1  0  0  0
 36 42  1  0  0  0  0
 36 49  1  6  0  0  0
 37 38  1  0  0  0  0
 40 41  2  0  0  0  0
 41 51  1  0  0  0  0
 42 47  1  0  0  0  0
 44 50  2  0  0  0  0
 44 53  1  0  0  0  0
 47 52  1  0  0  0  0
 48 50  1  0  0  0  0
 48 52  1  0  0  0  0
 48 54  1  6  0  0  0
 54 56  1  0  0  0  0
M  END
> <DRUGBANK_ID>
DB00337

> <DRUG_GROUPS>
approved; investigational

> <GENERIC_NAME>
Pimecrolimus

> <SYNONYMS>


> <BRANDS>


> <CHEMICAL_FORMULA>
C43H68ClNO11

> <MOLECULAR_WEIGHT>
810.453

> <EXACT_MASS>
809.44808973

> <IUPAC_NAME>
(1R,9S,12S,13S,14S,17R,21S,23S,24R,25S,27R)-12-[(1E)-1-[(1R,3R,4S)-4-chloro-3-methoxycyclohexyl]prop-1-en-2-yl]-17-ethyl-1,14-dihydroxy-23,25-dimethoxy-13,19,21,27-tetramethyl-11,28-dioxa-4-azatricyclo[22.3.1.0^{4,9}]octacos-18-ene-2,3,10,16-tetrone

> <IUPAC_TRADITIONAL_NAME>
(1R,9S,12S,13S,14S,17R,21S,23S,24R,25S,27R)-12-[(1E)-1-[(1R,3R,4S)-4-chloro-3-methoxycyclohexyl]prop-1-en-2-yl]-17-ethyl-1,14-dihydroxy-23,25-dimethoxy-13,19,21,27-tetramethyl-11,28-dioxa-4-azatricyclo[22.3.1.0^{4,9}]octacos-18-ene-2,3,10,16-tetrone

> <INCHI_IDENTIFIER>
InChI=1S/C43H68ClNO11/c1-10-30-18-24(2)17-25(3)19-36(53-8)39-37(54-9)21-27(5)43(51,56-39)40(48)41(49)45-16-12-11-13-32(45)42(50)55-38(28(6)33(46)23-34(30)47)26(4)20-29-14-15-31(44)35(22-29)52-7/h18,20,25,27-33,35-39,46,51H,10-17,19,21-23H2,1-9H3/b24-18-,26-20+/t25-,27+,28-,29-,30+,31-,32-,33-,35+,36-,37-,38+,39+,43+/m0/s1

> <INCHI_KEY>
InChIKey=KASDHRXLYQOAKZ-KDCWXYOMSA-N

> <SMILES>
[H][C@]12O[C@](O)([C@H](C)C[C@@H]1OC)C(=O)C(=O)N1CCCC[C@@]1([H])C(=O)O[C@@H]([C@@H](C)[C@@H](O)CC(=O)[C@H](CC)\C=C(C)/C[C@H](C)C[C@@H]2OC)C(\C)=C\[C@@H]1CC[C@H](Cl)[C@@H](C1)OC

> <JCHEM_ACCEPTOR_COUNT>
10

> <JCHEM_DONOR_COUNT>
2

> <JCHEM_ACIDIC_PKA>
9.96

> <JCHEM_BASIC_PKA>
-2.9

> <JCHEM_PHYSIOLOGICAL_CHARGE>
0

> <ALOGPS_LOGP>
4.36

> <JCHEM_LOGP>
6.81

> <ALOGPS_LOGS>
-5.7

> <JCHEM_POLARIZABILITY>
87.87

> <JCHEM_POLAR_SURFACE_AREA>
158.13

> <JCHEM_REFRACTIVITY>
214.03

> <JCHEM_ROTATABLE_BOND_COUNT>
6

> <ALOGPS_SOLUBILITY>
1.52e-03 g/l __ 

$$$$
