659
  Mrv0541 02231214522D          

 11 10  0  0  0  0            999 V2000
    2.8075   -0.2615    0.0000 S   0  0  0  0  0  0  0  0  0  0  0  0
    2.0930   -0.6740    0.0000 O   0  0  0  0  0  0  0  0  0  0  0  0
    2.3950    0.4529    0.0000 O   0  0  0  0  0  0  0  0  0  0  0  0
    3.2200   -0.9760    0.0000 O   0  0  0  0  0  0  0  0  0  0  0  0
    6.3799    0.9760    0.0000 O   0  0  0  0  0  0  0  0  0  0  0  0
    5.6655   -0.2615    0.0000 N   0  0  0  0  0  0  0  0  0  0  0  0
    4.2365   -0.2615    0.0000 C   0  0  0  0  0  0  0  0  0  0  0  0
    3.5220    0.1510    0.0000 C   0  0  0  0  0  0  0  0  0  0  0  0
    4.9509    0.1510    0.0000 C   0  0  0  0  0  0  0  0  0  0  0  0
    6.3799    0.1510    0.0000 C   0  0  0  0  0  0  0  0  0  0  0  0
    7.0944   -0.2615    0.0000 C   0  0  0  0  0  0  0  0  0  0  0  0
  1  2  1  0  0  0  0
  1  3  2  0  0  0  0
  1  4  2  0  0  0  0
  1  8  1  0  0  0  0
  5 10  2  0  0  0  0
  6  9  1  0  0  0  0
  6 10  1  0  0  0  0
  7  8  1  0  0  0  0
  7  9  1  0  0  0  0
 10 11  1  0  0  0  0
M  END
> <DRUGBANK_ID>
DB00659

> <DRUG_GROUPS>
approved; investigational

> <GENERIC_NAME>
Acamprosate

> <SYNONYMS>
N-acetyl homotaurine

> <SALTS>
Acamprosate Calcium 

> <BRANDS>
Campral; Regtect

> <CHEMICAL_FORMULA>
C5H11NO4S

> <MOLECULAR_WEIGHT>
181.21

> <EXACT_MASS>
181.040878535

> <IUPAC_NAME>
3-acetamidopropane-1-sulfonic acid

> <IUPAC_TRADITIONAL_NAME>
acamprosate

> <INCHI_IDENTIFIER>
InChI=1S/C5H11NO4S/c1-5(7)6-3-2-4-11(8,9)10/h2-4H2,1H3,(H,6,7)(H,8,9,10)

> <INCHI_KEY>
InChIKey=AFCGFAGUEYAMAO-UHFFFAOYSA-N

> <SMILES>
CC(=O)NCCCS(O)(=O)=O

> <JCHEM_ACCEPTOR_COUNT>
4

> <JCHEM_DONOR_COUNT>
2

> <JCHEM_ACIDIC_PKA>
-1.1

> <JCHEM_BASIC_PKA>
-0.47

> <JCHEM_PHYSIOLOGICAL_CHARGE>
-1

> <ALOGPS_LOGP>
-1.8

> <JCHEM_LOGP>
-2.8

> <ALOGPS_LOGS>
-0.98

> <JCHEM_POLARIZABILITY>
17.17

> <JCHEM_POLAR_SURFACE_AREA>
83.47

> <JCHEM_REFRACTIVITY>
38.91

> <JCHEM_ROTATABLE_BOND_COUNT>
4

> <ALOGPS_SOLUBILITY>
1.88e+01 g/l __ 

$$$$
