192
  Mrv0541 02231214302D          

 23 25  0  0  0  0            999 V2000
    6.8716    0.2479    0.0000 O   0  0  0  0  0  0  0  0  0  0  0  0
    2.9554    0.8291    0.0000 N   0  0  0  0  0  0  0  0  0  0  0  0
    5.7156    1.0879    0.0000 N   0  0  0  0  0  0  0  0  0  0  0  0
    5.5662   -0.3333    0.0000 C   0  0  0  0  0  0  0  0  0  0  0  0
    5.0813    0.3341    0.0000 C   0  0  0  0  0  0  0  0  0  0  0  0
    6.2336   -0.8182    0.0000 C   0  0  0  0  0  0  0  0  0  0  0  0
    4.8988   -0.8182    0.0000 C   0  0  0  0  0  0  0  0  0  0  0  0
    5.9787   -1.6028    0.0000 C   0  0  0  0  0  0  0  0  0  0  0  0
    5.1537   -1.6028    0.0000 C   0  0  0  0  0  0  0  0  0  0  0  0
    4.2608    0.2479    0.0000 C   0  0  0  0  0  0  0  0  0  0  0  0
    6.0512    0.3341    0.0000 C   0  0  0  0  0  0  0  0  0  0  0  0
    3.7759    0.9153    0.0000 C   0  0  0  0  0  0  0  0  0  0  0  0
    7.0714   -0.6266    0.0000 C   0  0  0  0  0  0  0  0  0  0  0  0
    4.0611   -0.6266    0.0000 C   0  0  0  0  0  0  0  0  0  0  0  0
    6.5439   -2.2503    0.0000 C   0  0  0  0  0  0  0  0  0  0  0  0
    4.5887   -2.2503    0.0000 C   0  0  0  0  0  0  0  0  0  0  0  0
    7.6513   -1.2608    0.0000 C   0  0  0  0  0  0  0  0  0  0  0  0
    3.4812   -1.2608    0.0000 C   0  0  0  0  0  0  0  0  0  0  0  0
    7.3858   -2.0781    0.0000 C   0  0  0  0  0  0  0  0  0  0  0  0
    3.7467   -2.0781    0.0000 C   0  0  0  0  0  0  0  0  0  0  0  0
    2.4705    1.4966    0.0000 C   0  0  0  0  0  0  0  0  0  0  0  0
    1.6500    1.4103    0.0000 C   0  0  0  0  0  0  0  0  0  0  0  0
    2.8061    2.2503    0.0000 C   0  0  0  0  0  0  0  0  0  0  0  0
  1 11  2  0  0  0  0
  2 12  1  0  0  0  0
  2 21  1  0  0  0  0
  3 11  1  0  0  0  0
  4  5  1  0  0  0  0
  4  6  1  0  0  0  0
  4  7  1  0  0  0  0
  4 11  1  0  0  0  0
  5 10  1  0  0  0  0
  6  8  1  0  0  0  0
  6 13  2  0  0  0  0
  7  9  1  0  0  0  0
  7 14  2  0  0  0  0
  8  9  1  0  0  0  0
  8 15  2  0  0  0  0
  9 16  2  0  0  0  0
 10 12  1  0  0  0  0
 13 17  1  0  0  0  0
 14 18  1  0  0  0  0
 15 19  1  0  0  0  0
 16 20  1  0  0  0  0
 17 19  2  0  0  0  0
 18 20  2  0  0  0  0
 21 22  1  0  0  0  0
 21 23  1  0  0  0  0
M  END
> <DRUGBANK_ID>
DB00192

> <DRUG_GROUPS>
approved

> <GENERIC_NAME>
Indecainide

> <SYNONYMS>
Indecainida; Indecainidum

> <SALTS>
Indecainide hydrochloride

> <BRANDS>
Decabid

> <CHEMICAL_FORMULA>
C20H24N2O

> <MOLECULAR_WEIGHT>
308.4174

> <EXACT_MASS>
308.1888634

> <IUPAC_NAME>
9-{3-[(propan-2-yl)amino]propyl}-9H-fluorene-9-carboxamide

> <IUPAC_TRADITIONAL_NAME>
indecainide

> <INCHI_IDENTIFIER>
InChI=1S/C20H24N2O/c1-14(2)22-13-7-12-20(19(21)23)17-10-5-3-8-15(17)16-9-4-6-11-18(16)20/h3-6,8-11,14,22H,7,12-13H2,1-2H3,(H2,21,23)

> <INCHI_KEY>
InChIKey=UCEWGESNIULAGX-UHFFFAOYSA-N

> <SMILES>
CC(C)NCCCC1(C(N)=O)C2=CC=CC=C2C2=CC=CC=C12

> <JCHEM_ACCEPTOR_COUNT>
2

> <JCHEM_DONOR_COUNT>
2

> <JCHEM_ACIDIC_PKA>
16.51

> <JCHEM_BASIC_PKA>
10.4

> <JCHEM_PHYSIOLOGICAL_CHARGE>
1

> <ALOGPS_LOGP>
3.24

> <JCHEM_LOGP>
3.26

> <ALOGPS_LOGS>
-5.5

> <JCHEM_POLARIZABILITY>
35.56

> <JCHEM_POLAR_SURFACE_AREA>
55.12

> <JCHEM_REFRACTIVITY>
94.05

> <JCHEM_ROTATABLE_BOND_COUNT>
6

> <ALOGPS_SOLUBILITY>
8.96e-04 g/l __ 

$$$$
