 
  Mrv0541 02231215002D          
 
 28 30  0  0  0  0            999 V2000
   17.7326   -9.2768    0.0000 C   0  0  0  0  0  0  0  0  0  0  0  0
   18.4412   -8.8604    0.0000 S   0  0  0  0  0  0  0  0  0  0  0  0
   17.7326  -10.0986    0.0000 C   0  0  0  0  0  0  0  0  0  0  0  0
   17.0204   -8.8604    0.0000 C   0  0  0  0  0  0  0  0  0  0  0  0
   19.1571   -9.2768    0.0000 N   0  0  0  0  0  0  0  0  0  0  0  0
   17.7290   -8.2760    0.0000 O   0  0  0  0  0  0  0  0  0  0  0  0
   19.1790   -8.2760    0.0000 O   0  0  0  0  0  0  0  0  0  0  0  0
   17.0204  -10.5076    0.0000 C   0  0  0  0  0  0  0  0  0  0  0  0
   16.3118   -9.2768    0.0000 C   0  0  0  0  0  0  0  0  0  0  0  0
   19.8693   -8.8604    0.0000 C   0  0  0  0  0  0  0  0  0  0  0  0
   16.3118  -10.0986    0.0000 C   0  0  0  0  0  0  0  0  0  0  0  0
   19.8620   -8.0386    0.0000 C   0  0  0  0  0  0  0  0  0  0  0  0
   20.5815   -9.2695    0.0000 N   0  0  0  0  0  0  0  0  0  0  0  0
   15.5959  -10.5076    0.0000 N   0  0  0  0  0  0  0  0  0  0  0  0
   20.5742   -7.6258    0.0000 C   0  0  0  0  0  0  0  0  0  0  0  0
   21.2937   -8.8568    0.0000 C   0  0  0  0  0  0  0  0  0  0  0  0
   14.7705  -10.0730    0.0000 N   0  0  0  0  0  0  0  0  0  0  0  0
   21.2901   -8.0350    0.0000 C   0  0  0  0  0  0  0  0  0  0  0  0
   13.9633  -10.5406    0.0000 C   0  0  0  0  0  0  0  0  0  0  0  0
   13.9633  -11.4755    0.0000 C   0  0  0  0  0  0  0  0  0  0  0  0
   13.1562  -10.0730    0.0000 C   0  0  0  0  0  0  0  0  0  0  0  0
   13.1562  -11.9430    0.0000 C   0  0  0  0  0  0  0  0  0  0  0  0
   12.3452  -10.5406    0.0000 C   0  0  0  0  0  0  0  0  0  0  0  0
   12.3490  -11.4755    0.0000 C   0  0  0  0  0  0  0  0  0  0  0  0
   13.1562  -12.8781    0.0000 C   0  0  0  0  0  0  0  0  0  0  0  0
   11.5381  -11.9468    0.0000 O   0  0  0  0  0  0  0  0  0  0  0  0
   13.9670  -13.3455    0.0000 O   0  0  0  0  0  0  0  0  0  0  0  0
   12.3490  -13.3455    0.0000 O   0  0  0  0  0  0  0  0  0  0  0  0
  1  2  1  0  0  0  0
  1  3  1  0  0  0  0
  1  4  2  0  0  0  0
  2  5  1  0  0  0  0
  2  6  2  0  0  0  0
  2  7  2  0  0  0  0
  3  8  2  0  0  0  0
  4  9  1  0  0  0  0
  5 10  1  0  0  0  0
  8 11  1  0  0  0  0
 10 12  1  0  0  0  0
 10 13  2  0  0  0  0
 11 14  1  0  0  0  0
 12 15  2  0  0  0  0
 13 16  1  0  0  0  0
 14 17  2  0  0  0  0
 15 18  1  0  0  0  0
 17 19  1  0  0  0  0
 19 20  1  0  0  0  0
 19 21  2  0  0  0  0
 20 22  2  0  0  0  0
 21 23  1  0  0  0  0
 22 24  1  0  0  0  0
 22 25  1  0  0  0  0
 24 26  1  0  0  0  0
 25 27  1  0  0  0  0
 25 28  2  0  0  0  0
  9 11  2  0  0  0  0
 16 18  2  0  0  0  0
 23 24  2  0  0  0  0
M  END
> <DRUGBANK_ID>
DB00795

> <DRUG_GROUPS>
approved

> <GENERIC_NAME>
Sulfasalazine

> <SYNONYMS>
Azopyrin; Salazosulfapyridine; Sulfasalazin; Sulfasalazina ; Sulfasalazine; Sulfasalazinum

> <BRANDS>
Asasurfan; Azulfdidina; Azulfidine; Azulfin; Bomecon; Colo-Pleon; Disalazin; Eminapyrin; Flogostop; Iwata; Lanofen; Lazafin; Pleon; Pyralin EN; Reumazin; Saaz; Saaz-DS; Salasopyrine; Salazar; Salazidin; Salazine; Salazopirina; Salazoprin; Salazopyrin; Salazopyrin EN; Salazopyrin EN-Tabs; Sulcolon; Sulfacol; Weiliufen; Zopyrin

> <CHEMICAL_FORMULA>
C18H14N4O5S

> <MOLECULAR_WEIGHT>
398.393

> <EXACT_MASS>
398.068490268

> <IUPAC_NAME>
2-hydroxy-5-[(E)-2-{4-[(pyridin-2-yl)sulfamoyl]phenyl}diazen-1-yl]benzoic acid

> <IUPAC_TRADITIONAL_NAME>
sulfasalazine

> <INCHI_IDENTIFIER>
InChI=1S/C18H14N4O5S/c23-16-9-6-13(11-15(16)18(24)25)21-20-12-4-7-14(8-5-12)28(26,27)22-17-3-1-2-10-19-17/h1-11,23H,(H,19,22)(H,24,25)/b21-20+

> <INCHI_KEY>
InChIKey=NCEXYHBECQHGNR-QZQOTICOSA-N

> <SMILES>
OC(=O)C1=CC(=CC=C1O)\N=N\C1=CC=C(C=C1)S(=O)(=O)NC1=NC=CC=C1

> <JCHEM_ACCEPTOR_COUNT>
8

> <JCHEM_DONOR_COUNT>
3

> <JCHEM_ACIDIC_PKA>
3.3

> <JCHEM_BASIC_PKA>
2.4

> <JCHEM_PHYSIOLOGICAL_CHARGE>
-2

> <ALOGPS_LOGP>
2.92

> <JCHEM_LOGP>
3.94

> <ALOGPS_LOGS>
-3.9

> <JCHEM_POLARIZABILITY>
39.69

> <JCHEM_POLAR_SURFACE_AREA>
141.31

> <JCHEM_REFRACTIVITY>
104.6

> <JCHEM_ROTATABLE_BOND_COUNT>
5

> <ALOGPS_SOLUBILITY>
4.64e-02 g/l __ 

$$$$
