265
  Mrv0541 02231214332D          

 15 15  0  0  0  0            999 V2000
    4.5080    0.0000    0.0000 O   0  0  0  0  0  0  0  0  0  0  0  0
    3.0791    0.0000    0.0000 N   0  0  0  0  0  0  0  0  0  0  0  0
    3.0791   -0.8250    0.0000 C   0  0  0  0  0  0  0  0  0  0  0  0
    2.3645    0.4125    0.0000 C   0  0  0  0  0  0  0  0  0  0  0  0
    2.3645   -1.2375    0.0000 C   0  0  0  0  0  0  0  0  0  0  0  0
    3.7935   -1.2375    0.0000 C   0  0  0  0  0  0  0  0  0  0  0  0
    3.7935    0.4125    0.0000 C   0  0  0  0  0  0  0  0  0  0  0  0
    2.3645   -2.0625    0.0000 C   0  0  0  0  0  0  0  0  0  0  0  0
    2.3645    1.2375    0.0000 C   0  0  0  0  0  0  0  0  0  0  0  0
    1.6500   -0.8250    0.0000 C   0  0  0  0  0  0  0  0  0  0  0  0
    3.7935   -2.0625    0.0000 C   0  0  0  0  0  0  0  0  0  0  0  0
    3.0791   -2.4751    0.0000 C   0  0  0  0  0  0  0  0  0  0  0  0
    3.7935    1.2375    0.0000 C   0  0  0  0  0  0  0  0  0  0  0  0
    4.5080    1.6500    0.0000 C   0  0  0  0  0  0  0  0  0  0  0  0
    4.5080    2.4751    0.0000 C   0  0  0  0  0  0  0  0  0  0  0  0
  1  7  2  0  0  0  0
  2  3  1  0  0  0  0
  2  4  1  0  0  0  0
  2  7  1  0  0  0  0
  3  5  1  0  0  0  0
  3  6  2  0  0  0  0
  4  9  1  0  0  0  0
  5  8  2  0  0  0  0
  5 10  1  0  0  0  0
  6 11  1  0  0  0  0
  7 13  1  0  0  0  0
  8 12  1  0  0  0  0
 11 12  2  0  0  0  0
 13 14  2  3  0  0  0
 14 15  1  0  0  0  0
M  END
> <DRUGBANK_ID>
DB00265

> <DRUG_GROUPS>
approved

> <GENERIC_NAME>
Crotamiton

> <BRANDS>
Crotamitex; Euracin; Eurax

> <CHEMICAL_FORMULA>
C13H17NO

> <MOLECULAR_WEIGHT>
203.2802

> <EXACT_MASS>
203.131014171

> <IUPAC_NAME>
N-ethyl-N-(2-methylphenyl)but-2-enamide

> <IUPAC_TRADITIONAL_NAME>
crotamiton

> <INCHI_IDENTIFIER>
InChI=1S/C13H17NO/c1-4-8-13(15)14(5-2)12-10-7-6-9-11(12)3/h4,6-10H,5H2,1-3H3/b8-4+

> <INCHI_KEY>
InChIKey=DNTGGZPQPQTDQF-XBXARRHUSA-N

> <SMILES>
CCN(C(=O)C=CC)C1=CC=CC=C1C

> <JCHEM_ACCEPTOR_COUNT>
1

> <JCHEM_DONOR_COUNT>
0

> <JCHEM_BASIC_PKA>
-0.6

> <JCHEM_PHYSIOLOGICAL_CHARGE>
0

> <ALOGPS_LOGP>
2.7

> <JCHEM_LOGP>
3.09

> <ALOGPS_LOGS>
-2.8

> <JCHEM_POLARIZABILITY>
23.07

> <JCHEM_POLAR_SURFACE_AREA>
20.31

> <JCHEM_REFRACTIVITY>
64.15

> <JCHEM_ROTATABLE_BOND_COUNT>
3

> <ALOGPS_SOLUBILITY>
3.53e-01 g/l __ 

$$$$
