371
  Mrv0541 02231214382D          

 15 14  0  0  0  0            999 V2000
    6.3799   -0.4529    0.0000 O   0  0  0  0  0  0  0  0  0  0  0  0
    3.5220   -0.4529    0.0000 O   0  0  0  0  0  0  0  0  0  0  0  0
    7.0944    0.7846    0.0000 O   0  0  0  0  0  0  0  0  0  0  0  0
    2.8075   -1.6905    0.0000 O   0  0  0  0  0  0  0  0  0  0  0  0
    7.8089   -0.4529    0.0000 N   0  0  0  0  0  0  0  0  0  0  0  0
    2.0930   -0.4529    0.0000 N   0  0  0  0  0  0  0  0  0  0  0  0
    4.9509   -0.4529    0.0000 C   0  0  0  0  0  0  0  0  0  0  0  0
    4.5384    0.2615    0.0000 C   0  0  0  0  0  0  0  0  0  0  0  0
    5.6655   -0.0404    0.0000 C   0  0  0  0  0  0  0  0  0  0  0  0
    4.2365   -0.8654    0.0000 C   0  0  0  0  0  0  0  0  0  0  0  0
    5.3634   -1.1675    0.0000 C   0  0  0  0  0  0  0  0  0  0  0  0
    4.9509    0.9760    0.0000 C   0  0  0  0  0  0  0  0  0  0  0  0
    4.5384    1.6905    0.0000 C   0  0  0  0  0  0  0  0  0  0  0  0
    7.0944   -0.0404    0.0000 C   0  0  0  0  0  0  0  0  0  0  0  0
    2.8075   -0.8654    0.0000 C   0  0  0  0  0  0  0  0  0  0  0  0
  1  9  1  0  0  0  0
  1 14  1  0  0  0  0
  2 10  1  0  0  0  0
  2 15  1  0  0  0  0
  3 14  2  0  0  0  0
  4 15  2  0  0  0  0
  5 14  1  0  0  0  0
  6 15  1  0  0  0  0
  7  8  1  0  0  0  0
  7  9  1  0  0  0  0
  7 10  1  0  0  0  0
  7 11  1  0  0  0  0
  8 12  1  0  0  0  0
 12 13  1  0  0  0  0
M  END
> <DRUGBANK_ID>
DB00371

> <DRUG_GROUPS>
approved; illicit

> <GENERIC_NAME>
Meprobamate

> <SYNONYMS>
Meprobamat; Meprobamato; Meprobamatum; Meprobamic acid

> <BRANDS>
Equanil; Meprospan; Miltown

> <CHEMICAL_FORMULA>
C9H18N2O4

> <MOLECULAR_WEIGHT>
218.2502

> <EXACT_MASS>
218.126657074

> <IUPAC_NAME>
2-[(carbamoyloxy)methyl]-2-methylpentyl carbamate

> <IUPAC_TRADITIONAL_NAME>
meprobamate

> <INCHI_IDENTIFIER>
InChI=1S/C9H18N2O4/c1-3-4-9(2,5-14-7(10)12)6-15-8(11)13/h3-6H2,1-2H3,(H2,10,12)(H2,11,13)

> <INCHI_KEY>
InChIKey=NPPQSCRMBWNHMW-UHFFFAOYSA-N

> <SMILES>
CCCC(C)(COC(N)=O)COC(N)=O

> <JCHEM_ACCEPTOR_COUNT>
2

> <JCHEM_DONOR_COUNT>
2

> <JCHEM_ACIDIC_PKA>
15.17

> <JCHEM_PHYSIOLOGICAL_CHARGE>
0

> <ALOGPS_LOGP>
1.06

> <JCHEM_LOGP>
0.93

> <ALOGPS_LOGS>
-1.9

> <JCHEM_POLARIZABILITY>
22.65

> <JCHEM_POLAR_SURFACE_AREA>
104.64

> <JCHEM_REFRACTIVITY>
53.04

> <JCHEM_ROTATABLE_BOND_COUNT>
8

> <ALOGPS_SOLUBILITY>
2.47e+00 g/l __ 

$$$$
