539
  Mrv0541 02231214452D          

 29 31  0  0  0  0            999 V2000
    3.0791    4.1251    0.0000 Cl   0  0  0  0  0  0  0  0  0  0  0  0
    4.5080   -1.6500    0.0000 O    0  0  0  0  0  0  0  0  0  0  0  0
    3.0791   -3.3001    0.0000 N    0  0  0  0  0  0  0  0  0  0  0  0
    4.5080    1.6500    0.0000 C    0  0  0  0  0  0  0  0  0  0  0  0
    3.7935    2.0625    0.0000 C    0  0  0  0  0  0  0  0  0  0  0  0
    4.5080    0.8250    0.0000 C    0  0  0  0  0  0  0  0  0  0  0  0
    3.7935    2.8876    0.0000 C    0  0  0  0  0  0  0  0  0  0  0  0
    5.2224    2.0625    0.0000 C    0  0  0  0  0  0  0  0  0  0  0  0
    3.0791    1.6500    0.0000 C    0  0  0  0  0  0  0  0  0  0  0  0
    5.2224    0.4125    0.0000 C    0  0  0  0  0  0  0  0  0  0  0  0
    3.7935    0.4125    0.0000 C    0  0  0  0  0  0  0  0  0  0  0  0
    3.0791    3.3001    0.0000 C    0  0  0  0  0  0  0  0  0  0  0  0
    4.5080   -0.8250    0.0000 C    0  0  0  0  0  0  0  0  0  0  0  0
    5.2224   -0.4125    0.0000 C    0  0  0  0  0  0  0  0  0  0  0  0
    3.7935   -0.4125    0.0000 C    0  0  0  0  0  0  0  0  0  0  0  0
    5.2224    2.8876    0.0000 C    0  0  0  0  0  0  0  0  0  0  0  0
    5.9370    1.6500    0.0000 C    0  0  0  0  0  0  0  0  0  0  0  0
    3.0791    0.8250    0.0000 C    0  0  0  0  0  0  0  0  0  0  0  0
    2.3645    2.0625    0.0000 C    0  0  0  0  0  0  0  0  0  0  0  0
    3.7935   -2.8876    0.0000 C    0  0  0  0  0  0  0  0  0  0  0  0
    3.7935   -2.0625    0.0000 C    0  0  0  0  0  0  0  0  0  0  0  0
    5.9370    3.3001    0.0000 C    0  0  0  0  0  0  0  0  0  0  0  0
    6.6515    2.0625    0.0000 C    0  0  0  0  0  0  0  0  0  0  0  0
    2.3645    0.4125    0.0000 C    0  0  0  0  0  0  0  0  0  0  0  0
    1.6500    1.6500    0.0000 C    0  0  0  0  0  0  0  0  0  0  0  0
    6.6515    2.8876    0.0000 C    0  0  0  0  0  0  0  0  0  0  0  0
    1.6500    0.8250    0.0000 C    0  0  0  0  0  0  0  0  0  0  0  0
    2.3645   -2.8876    0.0000 C    0  0  0  0  0  0  0  0  0  0  0  0
    3.0791   -4.1251    0.0000 C    0  0  0  0  0  0  0  0  0  0  0  0
  1 12  1  0  0  0  0
  2 13  1  0  0  0  0
  2 21  1  0  0  0  0
  3 20  1  0  0  0  0
  3 28  1  0  0  0  0
  3 29  1  0  0  0  0
  4  5  2  0  0  0  0
  4  6  1  0  0  0  0
  4  8  1  0  0  0  0
  5  7  1  0  0  0  0
  5  9  1  0  0  0  0
  6 10  2  0  0  0  0
  6 11  1  0  0  0  0
  7 12  1  0  0  0  0
  8 16  2  0  0  0  0
  8 17  1  0  0  0  0
  9 18  2  0  0  0  0
  9 19  1  0  0  0  0
 10 14  1  0  0  0  0
 11 15  2  0  0  0  0
 13 14  2  0  0  0  0
 13 15  1  0  0  0  0
 16 22  1  0  0  0  0
 17 23  2  0  0  0  0
 18 24  1  0  0  0  0
 19 25  2  0  0  0  0
 20 21  1  0  0  0  0
 22 26  2  0  0  0  0
 23 26  1  0  0  0  0
 24 27  2  0  0  0  0
 25 27  1  0  0  0  0
M  END
> <DRUGBANK_ID>
DB00539

> <DRUG_GROUPS>
approved; investigational

> <GENERIC_NAME>
Toremifene

> <SYNONYMS>
Toremifeno; Toremifenum

> <BRANDS>
Acapodene; Fareston

> <CHEMICAL_FORMULA>
C26H28ClNO

> <MOLECULAR_WEIGHT>
405.96

> <EXACT_MASS>
405.18594223

> <IUPAC_NAME>
(2-{4-[(1Z)-4-chloro-1,2-diphenylbut-1-en-1-yl]phenoxy}ethyl)dimethylamine

> <IUPAC_TRADITIONAL_NAME>
toremifene

> <INCHI_IDENTIFIER>
InChI=1S/C26H28ClNO/c1-28(2)19-20-29-24-15-13-23(14-16-24)26(22-11-7-4-8-12-22)25(17-18-27)21-9-5-3-6-10-21/h3-16H,17-20H2,1-2H3/b26-25-

> <INCHI_KEY>
InChIKey=XFCLJVABOIYOMF-QPLCGJKRSA-N

> <SMILES>
CN(C)CCOC1=CC=C(C=C1)C(=C(\CCCl)C1=CC=CC=C1)\C1=CC=CC=C1

> <JCHEM_ACCEPTOR_COUNT>
2

> <JCHEM_DONOR_COUNT>
0

> <JCHEM_BASIC_PKA>
8.76

> <JCHEM_PHYSIOLOGICAL_CHARGE>
1

> <ALOGPS_LOGP>
5.65

> <JCHEM_LOGP>
6.27

> <ALOGPS_LOGS>
-6

> <JCHEM_POLARIZABILITY>
46.49

> <JCHEM_POLAR_SURFACE_AREA>
12.47

> <JCHEM_REFRACTIVITY>
133.41

> <JCHEM_ROTATABLE_BOND_COUNT>
9

> <ALOGPS_SOLUBILITY>
4.09e-04 g/l __ 

$$$$
