623
  Mrv0541 02231214492D          

 30 33  0  0  0  0            999 V2000
    5.9361   -3.5410    0.0000 S   0  0  0  0  0  0  0  0  0  0  0  0
    8.4328   -1.1584    0.0000 F   0  0  0  0  0  0  0  0  0  0  0  0
    9.2631   -2.5840    0.0000 F   0  0  0  0  0  0  0  0  0  0  0  0
    9.5608   -1.4561    0.0000 F   0  0  0  0  0  0  0  0  0  0  0  0
    1.6498    3.0581    0.0000 O   0  0  0  0  0  0  0  0  0  0  0  0
    4.5073    0.5834    0.0000 N   0  0  0  0  0  0  0  0  0  0  0  0
    3.0786    1.4083    0.0000 N   0  0  0  0  0  0  0  0  0  0  0  0
    5.9361   -1.8912    0.0000 N   0  0  0  0  0  0  0  0  0  0  0  0
    3.7929    0.1710    0.0000 C   0  0  0  0  0  0  0  0  0  0  0  0
    4.5073    1.4083    0.0000 C   0  0  0  0  0  0  0  0  0  0  0  0
    3.0786    0.5834    0.0000 C   0  0  0  0  0  0  0  0  0  0  0  0
    3.7929    1.8208    0.0000 C   0  0  0  0  0  0  0  0  0  0  0  0
    5.2216    0.1710    0.0000 C   0  0  0  0  0  0  0  0  0  0  0  0
    5.2216   -0.6539    0.0000 C   0  0  0  0  0  0  0  0  0  0  0  0
    2.3641    1.8208    0.0000 C   0  0  0  0  0  0  0  0  0  0  0  0
    5.9361   -1.0664    0.0000 C   0  0  0  0  0  0  0  0  0  0  0  0
    2.3641    2.6456    0.0000 C   0  0  0  0  0  0  0  0  0  0  0  0
    6.6504   -2.3037    0.0000 C   0  0  0  0  0  0  0  0  0  0  0  0
    5.2216   -2.3037    0.0000 C   0  0  0  0  0  0  0  0  0  0  0  0
    6.6504   -3.1286    0.0000 C   0  0  0  0  0  0  0  0  0  0  0  0
    5.2216   -3.1286    0.0000 C   0  0  0  0  0  0  0  0  0  0  0  0
    7.3878   -1.8626    0.0000 C   0  0  0  0  0  0  0  0  0  0  0  0
    4.4843   -1.8626    0.0000 C   0  0  0  0  0  0  0  0  0  0  0  0
    8.1352   -2.2865    0.0000 C   0  0  0  0  0  0  0  0  0  0  0  0
    7.3878   -3.5695    0.0000 C   0  0  0  0  0  0  0  0  0  0  0  0
    4.4843   -3.5695    0.0000 C   0  0  0  0  0  0  0  0  0  0  0  0
    8.1352   -3.1457    0.0000 C   0  0  0  0  0  0  0  0  0  0  0  0
    3.7368   -2.2865    0.0000 C   0  0  0  0  0  0  0  0  0  0  0  0
    3.7368   -3.1457    0.0000 C   0  0  0  0  0  0  0  0  0  0  0  0
    8.8480   -1.8712    0.0000 C   0  0  0  0  0  0  0  0  0  0  0  0
  1 20  1  0  0  0  0
  1 21  1  0  0  0  0
  2 30  1  0  0  0  0
  3 30  1  0  0  0  0
  4 30  1  0  0  0  0
  5 17  1  0  0  0  0
  6  9  1  0  0  0  0
  6 10  1  0  0  0  0
  6 13  1  0  0  0  0
  7 11  1  0  0  0  0
  7 12  1  0  0  0  0
  7 15  1  0  0  0  0
  8 16  1  0  0  0  0
  8 18  1  0  0  0  0
  8 19  1  0  0  0  0
  9 11  1  0  0  0  0
 10 12  1  0  0  0  0
 13 14  1  0  0  0  0
 14 16  1  0  0  0  0
 15 17  1  0  0  0  0
 18 20  2  0  0  0  0
 18 22  1  0  0  0  0
 19 21  1  0  0  0  0
 19 23  2  0  0  0  0
 20 25  1  0  0  0  0
 21 26  2  0  0  0  0
 22 24  2  0  0  0  0
 23 28  1  0  0  0  0
 24 27  1  0  0  0  0
 24 30  1  0  0  0  0
 25 27  2  0  0  0  0
 26 29  1  0  0  0  0
 28 29  2  0  0  0  0
M  END
> <DRUGBANK_ID>
DB00623

> <DRUG_GROUPS>
approved

> <GENERIC_NAME>
Fluphenazine

> <SYNONYMS>
Flufenazina; Fluorfenazine; Fluorophenazine; Fluorphenazine; Fluphenazin; FluphÃ©nazine; Fluphenazinum; Triflumethazine

> <SALTS>
Fluphenazine decanoate; Fluphenazine dihydrochloride; Fluphenazine enanthate

> <BRANDS>
Anatensol; Dapotum D; Fludecasin; Fludecate; Flumezin; Funazine; Lyogen; Lyogen Depot; Lyogen Retard; Metoten; Modecate; Moditen; Moditen Depo; Permitil; Prolixin

> <CHEMICAL_FORMULA>
C22H26F3N3OS

> <MOLECULAR_WEIGHT>
437.522

> <EXACT_MASS>
437.174867774

> <IUPAC_NAME>
2-(4-{3-[2-(trifluoromethyl)-10H-phenothiazin-10-yl]propyl}piperazin-1-yl)ethan-1-ol

> <IUPAC_TRADITIONAL_NAME>
fluphenazine

> <INCHI_IDENTIFIER>
InChI=1S/C22H26F3N3OS/c23-22(24,25)17-6-7-21-19(16-17)28(18-4-1-2-5-20(18)30-21)9-3-8-26-10-12-27(13-11-26)14-15-29/h1-2,4-7,16,29H,3,8-15H2

> <INCHI_KEY>
InChIKey=PLDUPXSUYLZYBN-UHFFFAOYSA-N

> <SMILES>
OCCN1CCN(CCCN2C3=CC=CC=C3SC3=C2C=C(C=C3)C(F)(F)F)CC1

> <JCHEM_ACCEPTOR_COUNT>
4

> <JCHEM_DONOR_COUNT>
1

> <JCHEM_ACIDIC_PKA>
15.59

> <JCHEM_BASIC_PKA>
8.21

> <JCHEM_PHYSIOLOGICAL_CHARGE>
1

> <ALOGPS_LOGP>
4.4

> <JCHEM_LOGP>
3.97

> <ALOGPS_LOGS>
-4.4

> <JCHEM_POLARIZABILITY>
44.92

> <JCHEM_POLAR_SURFACE_AREA>
29.95

> <JCHEM_REFRACTIVITY>
117.27

> <JCHEM_ROTATABLE_BOND_COUNT>
7

> <ALOGPS_SOLUBILITY>
1.90e-02 g/l __ 

$$$$
