404
  Mrv0541 02231214392D          

 22 25  0  0  0  0            999 V2000
    1.6500   -0.2321    0.0000 Cl   0  0  0  0  0  0  0  0  0  0  0  0
    4.8159   -1.3269    0.0000 N    0  0  0  0  0  0  0  0  0  0  0  0
    5.2284    0.4805    0.0000 N    0  0  0  0  0  0  0  0  0  0  0  0
    6.1244   -1.5631    0.0000 N    0  0  0  0  0  0  0  0  0  0  0  0
    5.7352   -2.2849    0.0000 N    0  0  0  0  0  0  0  0  0  0  0  0
    4.0726   -0.9689    0.0000 C    0  0  0  0  0  0  0  0  0  0  0  0
    3.8890   -0.1645    0.0000 C    0  0  0  0  0  0  0  0  0  0  0  0
    5.5592   -0.9689    0.0000 C    0  0  0  0  0  0  0  0  0  0  0  0
    4.4034    0.4805    0.0000 C    0  0  0  0  0  0  0  0  0  0  0  0
    5.7428   -0.1645    0.0000 C    0  0  0  0  0  0  0  0  0  0  0  0
    4.9281   -2.1392    0.0000 C    0  0  0  0  0  0  0  0  0  0  0  0
    3.4517   -1.5630    0.0000 C    0  0  0  0  0  0  0  0  0  0  0  0
    3.0718    0.1014    0.0000 C    0  0  0  0  0  0  0  0  0  0  0  0
    4.0454    1.2238    0.0000 C    0  0  0  0  0  0  0  0  0  0  0  0
    2.6286   -1.3160    0.0000 C    0  0  0  0  0  0  0  0  0  0  0  0
    2.4374   -0.4783    0.0000 C    0  0  0  0  0  0  0  0  0  0  0  0
    4.3328   -2.7104    0.0000 C    0  0  0  0  0  0  0  0  0  0  0  0
    3.2227    1.2854    0.0000 C    0  0  0  0  0  0  0  0  0  0  0  0
    4.5102    1.9054    0.0000 C    0  0  0  0  0  0  0  0  0  0  0  0
    2.8648    2.0288    0.0000 C    0  0  0  0  0  0  0  0  0  0  0  0
    4.1523    2.6488    0.0000 C    0  0  0  0  0  0  0  0  0  0  0  0
    3.3296    2.7104    0.0000 C    0  0  0  0  0  0  0  0  0  0  0  0
  1 16  1  0  0  0  0
  2  6  1  0  0  0  0
  2  8  1  0  0  0  0
  2 11  1  0  0  0  0
  3  9  2  0  0  0  0
  3 10  1  0  0  0  0
  4  5  1  0  0  0  0
  4  8  2  0  0  0  0
  5 11  2  0  0  0  0
  6  7  2  0  0  0  0
  6 12  1  0  0  0  0
  7  9  1  0  0  0  0
  7 13  1  0  0  0  0
  8 10  1  0  0  0  0
  9 14  1  0  0  0  0
 11 17  1  0  0  0  0
 12 15  2  0  0  0  0
 13 16  2  0  0  0  0
 14 18  2  0  0  0  0
 14 19  1  0  0  0  0
 15 16  1  0  0  0  0
 18 20  1  0  0  0  0
 19 21  2  0  0  0  0
 20 22  2  0  0  0  0
 21 22  1  0  0  0  0
M  END
> <DRUGBANK_ID>
DB00404

> <DRUG_GROUPS>
approved; illicit; investigational

> <GENERIC_NAME>
Alprazolam

> <BRANDS>
Alplax; Alpronax; Alviz; Cassadan; Niravam; Restyl; Solanax; Tranquinal; Xanax; Xanax XR; Xanor

> <CHEMICAL_FORMULA>
C17H13ClN4

> <MOLECULAR_WEIGHT>
308.765

> <EXACT_MASS>
308.082874143

> <IUPAC_NAME>
12-chloro-3-methyl-9-phenyl-2,4,5,8-tetraazatricyclo[8.4.0.0^{2,6}]tetradeca-1(10),3,5,8,11,13-hexaene

> <IUPAC_TRADITIONAL_NAME>
alprazolam

> <INCHI_IDENTIFIER>
InChI=1S/C17H13ClN4/c1-11-20-21-16-10-19-17(12-5-3-2-4-6-12)14-9-13(18)7-8-15(14)22(11)16/h2-9H,10H2,1H3

> <INCHI_KEY>
InChIKey=VREFGVBLTWBCJP-UHFFFAOYSA-N

> <SMILES>
CC1=NN=C2CN=C(C3=CC=CC=C3)C3=C(C=CC(Cl)=C3)N12

> <JCHEM_ACCEPTOR_COUNT>
3

> <JCHEM_DONOR_COUNT>
0

> <JCHEM_ACIDIC_PKA>
18.3

> <JCHEM_BASIC_PKA>
5.08

> <JCHEM_PHYSIOLOGICAL_CHARGE>
0

> <ALOGPS_LOGP>
2.23

> <JCHEM_LOGP>
2.37

> <ALOGPS_LOGS>
-4

> <JCHEM_POLARIZABILITY>
32.22

> <JCHEM_POLAR_SURFACE_AREA>
43.07

> <JCHEM_REFRACTIVITY>
98.88

> <JCHEM_ROTATABLE_BOND_COUNT>
1

> <ALOGPS_SOLUBILITY>
3.24e-02 g/l __ 

$$$$
