581
  Mrv0541 02231214472D          

 23 24  0  0  1  0            999 V2000
    5.6655   -0.5564    0.0000 O   0  0  0  0  0  0  0  0  0  0  0  0
    5.2530    1.5382    0.0000 O   0  0  0  0  0  0  0  0  0  0  0  0
    4.2365   -0.5564    0.0000 O   0  0  0  0  0  0  0  0  0  0  0  0
    7.1175    0.4986    0.0000 O   0  0  0  0  0  0  0  0  0  0  0  0
    6.8626    1.7931    0.0000 O   0  0  0  0  0  0  0  0  0  0  0  0
    5.6655   -2.2064    0.0000 O   0  0  0  0  0  0  0  0  0  0  0  0
    4.2365   -3.0314    0.0000 O   0  0  0  0  0  0  0  0  0  0  0  0
    2.8075   -2.2064    0.0000 O   0  0  0  0  0  0  0  0  0  0  0  0
    3.6002    1.0507    0.0000 O   0  0  0  0  0  0  0  0  0  0  0  0
    5.3634    2.7757    0.0000 O   0  0  0  0  0  0  0  0  0  0  0  0
    2.0930   -0.9689    0.0000 O   0  0  0  0  0  0  0  0  0  0  0  0
    5.6655    0.2686    0.0000 C   0  0  1  0  0  0  0  0  0  0  0  0
    6.3329    0.7536    0.0000 C   0  0  1  0  0  0  0  0  0  0  0  0
    4.9980    0.7536    0.0000 C   0  0  1  0  0  0  0  0  0  0  0  0
    6.0780    1.5382    0.0000 C   0  0  1  0  0  0  0  0  0  0  0  0
    4.9509   -0.9689    0.0000 C   0  0  2  0  0  0  0  0  0  0  0  0
    4.9509   -1.7939    0.0000 C   0  0  1  0  0  0  0  0  0  0  0  0
    4.2365   -2.2064    0.0000 C   0  0  2  0  0  0  0  0  0  0  0  0
    3.5220   -1.7939    0.0000 C   0  0  2  0  0  0  0  0  0  0  0  0
    3.5220   -0.9689    0.0000 C   0  0  1  0  0  0  0  0  0  0  0  0
    4.2134    0.4986    0.0000 C   0  0  0  0  0  0  0  0  0  0  0  0
    6.0780    2.3632    0.0000 C   0  0  0  0  0  0  0  0  0  0  0  0
    2.8075   -0.5564    0.0000 C   0  0  0  0  0  0  0  0  0  0  0  0
 12  1  1  6  0  0  0
 16  1  1  1  0  0  0
  2 14  1  0  0  0  0
  2 15  1  0  0  0  0
  3 16  1  0  0  0  0
  3 20  1  0  0  0  0
 13  4  1  1  0  0  0
 15  5  1  1  0  0  0
 17  6  1  6  0  0  0
 18  7  1  1  0  0  0
 19  8  1  1  0  0  0
  9 21  1  0  0  0  0
 10 22  1  0  0  0  0
 11 23  1  0  0  0  0
 12 13  1  0  0  0  0
 12 14  1  0  0  0  0
 13 15  1  0  0  0  0
 14 21  1  1  0  0  0
 15 22  1  0  0  0  0
 16 17  1  0  0  0  0
 17 18  1  0  0  0  0
 18 19  1  0  0  0  0
 19 20  1  0  0  0  0
 20 23  1  1  0  0  0
M  END
> <DRUGBANK_ID>
DB00581

> <DRUG_GROUPS>
approved

> <GENERIC_NAME>
Lactulose

> <SYNONYMS>
4-O-beta-D-Galactopyranosyl-D-fructofuranose; 4-O-beta-D-Galactopyranosyl-D-fructose; Lactulosa; Lactulose; Lactulosum

> <BRANDS>
Acilac; Bifiteral; Cephulac; Cholac; Chronulac; Constilac; Constulose; Duphalac; Enulose; Evalose; Generlac; Heptalac; Kristalose; Laevolac

> <CHEMICAL_FORMULA>
C12H22O11

> <MOLECULAR_WEIGHT>
342.2965

> <EXACT_MASS>
342.116211546

> <IUPAC_NAME>
(2S,3R,4S,5R,6R)-2-{[(2R,3S,4S,5R)-4,5-dihydroxy-2,5-bis(hydroxymethyl)oxolan-3-yl]oxy}-6-(hydroxymethyl)oxane-3,4,5-triol

> <IUPAC_TRADITIONAL_NAME>
lactulose

> <INCHI_IDENTIFIER>
InChI=1S/C12H22O11/c13-1-4-6(16)7(17)8(18)11(21-4)22-9-5(2-14)23-12(20,3-15)10(9)19/h4-11,13-20H,1-3H2/t4-,5-,6+,7+,8-,9-,10+,11+,12-/m1/s1

> <INCHI_KEY>
InChIKey=JCQLYHFGKNRPGE-FCVZTGTOSA-N

> <SMILES>
OC[C@H]1O[C@](O)(CO)[C@@H](O)[C@@H]1O[C@@H]1O[C@H](CO)[C@H](O)[C@H](O)[C@H]1O

> <JCHEM_ACCEPTOR_COUNT>
11

> <JCHEM_DONOR_COUNT>
8

> <JCHEM_ACIDIC_PKA>
10.28

> <JCHEM_BASIC_PKA>
-3

> <JCHEM_PHYSIOLOGICAL_CHARGE>
0

> <ALOGPS_LOGP>
-3.3

> <JCHEM_LOGP>
-4.5

> <ALOGPS_LOGS>
0.36

> <JCHEM_POLARIZABILITY>
31.49

> <JCHEM_POLAR_SURFACE_AREA>
189.53

> <JCHEM_REFRACTIVITY>
68.77

> <JCHEM_ROTATABLE_BOND_COUNT>
5

> <ALOGPS_SOLUBILITY>
7.92e+02 g/l __ 

$$$$
