608
  Mrv0541 02231214482D          

 22 23  0  0  1  0            999 V2000
    8.1347    3.3056    0.0000 Cl   0  0  0  0  0  0  0  0  0  0  0  0
    3.0790   -2.0768    0.0000 N    0  0  0  0  0  0  0  0  0  0  0  0
    5.2223    0.8107    0.0000 N    0  0  0  0  0  0  0  0  0  0  0  0
    5.2223    3.2857    0.0000 N    0  0  0  0  0  0  0  0  0  0  0  0
    4.5079   -0.4268    0.0000 C    0  0  0  0  0  0  0  0  0  0  0  0
    3.7934   -0.8393    0.0000 C    0  0  0  0  0  0  0  0  0  0  0  0
    4.5079    0.3982    0.0000 C    0  0  0  0  0  0  0  0  0  0  0  0
    3.7934   -1.6643    0.0000 C    0  0  0  0  0  0  0  0  0  0  0  0
    3.7934    0.8107    0.0000 C    0  0  0  0  0  0  0  0  0  0  0  0
    3.0790   -2.9018    0.0000 C    0  0  0  0  0  0  0  0  0  0  0  0
    2.3644   -1.6643    0.0000 C    0  0  0  0  0  0  0  0  0  0  0  0
    5.2223    1.6357    0.0000 C    0  0  0  0  0  0  0  0  0  0  0  0
    5.9369    2.0482    0.0000 C    0  0  0  0  0  0  0  0  0  0  0  0
    2.3644   -3.3143    0.0000 C    0  0  0  0  0  0  0  0  0  0  0  0
    1.6500   -2.0768    0.0000 C    0  0  0  0  0  0  0  0  0  0  0  0
    4.5079    2.0482    0.0000 C    0  0  0  0  0  0  0  0  0  0  0  0
    5.9369    2.8732    0.0000 C    0  0  0  0  0  0  0  0  0  0  0  0
    6.6743    1.6071    0.0000 C    0  0  0  0  0  0  0  0  0  0  0  0
    4.5079    2.8732    0.0000 C    0  0  0  0  0  0  0  0  0  0  0  0
    6.6743    3.3143    0.0000 C    0  0  0  0  0  0  0  0  0  0  0  0
    7.4219    2.0311    0.0000 C    0  0  0  0  0  0  0  0  0  0  0  0
    7.4219    2.8904    0.0000 C    0  0  0  0  0  0  0  0  0  0  0  0
  1 22  1  0  0  0  0
  2  8  1  0  0  0  0
  2 10  1  0  0  0  0
  2 11  1  0  0  0  0
  3  7  1  0  0  0  0
  3 12  1  0  0  0  0
  4 17  2  0  0  0  0
  4 19  1  0  0  0  0
  5  6  1  0  0  0  0
  5  7  1  0  0  0  0
  6  8  1  0  0  0  0
  7  9  1  0  0  0  0
 10 14  1  0  0  0  0
 11 15  1  0  0  0  0
 12 13  2  0  0  0  0
 12 16  1  0  0  0  0
 13 17  1  0  0  0  0
 13 18  1  0  0  0  0
 16 19  2  0  0  0  0
 17 20  1  0  0  0  0
 18 21  2  0  0  0  0
 20 22  2  0  0  0  0
 21 22  1  0  0  0  0
M  END
> <DRUGBANK_ID>
DB00608

> <DRUG_GROUPS>
approved

> <GENERIC_NAME>
Chloroquine

> <SYNONYMS>
Chloraquine; Chloroquina; Chloroquinium; Resochin

> <SALTS>
Chloroquine Phosphate

> <BRANDS>
Aralen; Artrichin; Bemaphate; Capquin; Malarex; Nivaquine B; Resoquine; Reumachlor; Sanoquin

> <CHEMICAL_FORMULA>
C18H26ClN3

> <MOLECULAR_WEIGHT>
319.872

> <EXACT_MASS>
319.181525554

> <IUPAC_NAME>
{4-[(7-chloroquinolin-4-yl)amino]pentyl}diethylamine

> <IUPAC_TRADITIONAL_NAME>
chloroquine

> <INCHI_IDENTIFIER>
InChI=1S/C18H26ClN3/c1-4-22(5-2)12-6-7-14(3)21-17-10-11-20-18-13-15(19)8-9-16(17)18/h8-11,13-14H,4-7,12H2,1-3H3,(H,20,21)

> <INCHI_KEY>
InChIKey=WHTVZRBIWZFKQO-UHFFFAOYSA-N

> <SMILES>
CCN(CC)CCCC(C)NC1=C2C=CC(Cl)=CC2=NC=C1

> <JCHEM_ACCEPTOR_COUNT>
3

> <JCHEM_DONOR_COUNT>
1

> <JCHEM_BASIC_PKA>
10.32

> <JCHEM_PHYSIOLOGICAL_CHARGE>
2

> <ALOGPS_LOGP>
5.28

> <JCHEM_LOGP>
3.93

> <ALOGPS_LOGS>
-4.3

> <JCHEM_POLARIZABILITY>
37.29

> <JCHEM_POLAR_SURFACE_AREA>
28.16

> <JCHEM_REFRACTIVITY>
96.42

> <JCHEM_ROTATABLE_BOND_COUNT>
8

> <ALOGPS_SOLUBILITY>
1.75e-02 g/l __ 

$$$$
