
  Mrv0541 04191212152D          

 26 29  0  0  1  0            999 V2000
    1.8036   -0.1138    0.0000 C   0  0  0  0  0  0  0  0  0  0  0  0
    0.3045   -1.0964    0.0000 C   0  0  0  0  0  0  0  0  0  0  0  0
    1.8036    1.2211    0.0000 C   0  0  1  0  0  0  0  0  0  0  0  0
    0.3045    1.3786    0.0000 C   0  0  0  0  0  0  0  0  0  0  0  0
    2.2885    0.5536    0.0000 C   0  0  0  0  0  0  0  0  0  0  0  0
   -1.1245   -0.2714    0.0000 C   0  0  2  0  0  0  0  0  0  0  0  0
   -0.4100    0.9661    0.0000 C   0  0  0  0  0  0  0  0  0  0  0  0
   -0.4100   -1.5089    0.0000 C   0  0  0  0  0  0  0  0  0  0  0  0
   -1.1245   -1.0964    0.0000 C   0  0  1  0  0  0  0  0  0  0  0  0
   -1.8390    0.1411    0.0000 C   0  0  0  0  0  0  0  0  0  0  0  0
   -1.8390   -1.5089    0.0000 C   0  0  0  0  0  0  0  0  0  0  0  0
   -2.5534   -0.2714    0.0000 C   0  0  2  0  0  0  0  0  0  0  0  0
    0.3045   -0.2714    0.0000 C   0  0  2  0  0  0  0  0  0  0  0  0
    0.3045    0.5536    0.0000 H   0  0  0  0  0  0  0  0  0  0  0  0
   -0.4100    0.1411    0.0000 C   0  0  1  0  0  0  0  0  0  0  0  0
   -0.4100   -0.6839    0.0000 H   0  0  0  0  0  0  0  0  0  0  0  0
    1.0189    0.9661    0.0000 C   0  0  2  0  0  0  0  0  0  0  0  0
    1.0189    1.7911    0.0000 C   0  0  0  0  0  0  0  0  0  0  0  0
    1.0189    0.1411    0.0000 C   0  0  1  0  0  0  0  0  0  0  0  0
    1.0189   -0.6839    0.0000 H   0  0  0  0  0  0  0  0  0  0  0  0
   -3.2679   -1.5089    0.0000 O   0  0  0  0  0  0  0  0  0  0  0  0
   -2.5534   -1.0964    0.0000 C   0  0  0  0  0  0  0  0  0  0  0  0
   -1.1245    0.5536    0.0000 C   0  0  0  0  0  0  0  0  0  0  0  0
    1.8036    2.0461    0.0000 O   0  0  0  0  0  0  0  0  0  0  0  0
   -3.2679    0.1411    0.0000 C   0  0  0  0  0  0  0  0  0  0  0  0
   -1.1245   -1.9214    0.0000 H   0  0  0  0  0  0  0  0  0  0  0  0
 19 13  1  0  0  0  0
 19 17  1  0  0  0  0
 19  1  1  0  0  0  0
 13 15  1  0  0  0  0
 13  2  1  0  0  0  0
 17  3  1  0  0  0  0
 17  4  1  0  0  0  0
  5  1  1  0  0  0  0
 15  6  1  0  0  0  0
 15  7  1  0  0  0  0
  2  8  1  0  0  0  0
  6  9  1  0  0  0  0
  6 10  1  0  0  0  0
  9 11  1  0  0  0  0
 10 12  1  0  0  0  0
 11 22  1  0  0  0  0
  3  5  1  0  0  0  0
  4  7  1  0  0  0  0
  8  9  1  0  0  0  0
 12 22  1  0  0  0  0
 13 14  1  1  0  0  0
 15 16  1  6  0  0  0
 17 18  1  1  0  0  0
 19 20  1  6  0  0  0
 22 21  2  0  0  0  0
  6 23  1  1  0  0  0
  3 24  1  1  0  0  0
 12 25  1  6  0  0  0
  9 26  1  6  0  0  0
M  END
> <DRUGBANK_ID>
DB00858

> <DRUG_GROUPS>
approved; illicit

> <GENERIC_NAME>
Drostanolone

> <SYNONYMS>
Dromostanolone

> <BRANDS>
Masteril; Masteron

> <CHEMICAL_FORMULA>
C20H32O2

> <MOLECULAR_WEIGHT>
304.4669

> <EXACT_MASS>
304.240230268

> <IUPAC_NAME>
(1S,2S,4R,7S,10R,11S,14S,15S)-14-hydroxy-2,4,15-trimethyltetracyclo[8.7.0.0^{2,7}.0^{11,15}]heptadecan-5-one

> <IUPAC_TRADITIONAL_NAME>
drostanolone

> <INCHI_IDENTIFIER>
InChI=1S/C20H32O2/c1-12-11-20(3)13(10-17(12)21)4-5-14-15-6-7-18(22)19(15,2)9-8-16(14)20/h12-16,18,22H,4-11H2,1-3H3/t12-,13+,14+,15+,16+,18+,19+,20+/m1/s1

> <INCHI_KEY>
InChIKey=IKXILDNPCZPPRV-RFMGOVQKSA-N

> <SMILES>
[H][C@@]12CC[C@H](O)[C@@]1(C)CC[C@@]1([H])[C@@]2([H])CC[C@@]2([H])CC(=O)[C@H](C)C[C@]12C

> <JCHEM_ACCEPTOR_COUNT>
2

> <JCHEM_DONOR_COUNT>
1

> <JCHEM_ACIDIC_PKA>
19.38

> <JCHEM_BASIC_PKA>
-0.88

> <JCHEM_PHYSIOLOGICAL_CHARGE>
0

> <ALOGPS_LOGP>
3.81

> <JCHEM_LOGP>
3.95

> <ALOGPS_LOGS>
-4.7

> <JCHEM_POLARIZABILITY>
36.79

> <JCHEM_POLAR_SURFACE_AREA>
37.3

> <JCHEM_REFRACTIVITY>
88.18

> <JCHEM_ROTATABLE_BOND_COUNT>
0

> <ALOGPS_SOLUBILITY>
6.05e-03 g/l __ 

$$$$
