800
  Mrv0541 02231215012D          

 21 23  0  0  1  0            999 V2000
    1.6500    0.3114    0.0000 Cl   0  0  0  0  0  0  0  0  0  0  0  0
    3.2859   -2.1079    0.0000 O    0  0  0  0  0  0  0  0  0  0  0  0
    1.7633   -1.3747    0.0000 O    0  0  0  0  0  0  0  0  0  0  0  0
    7.1733   -1.6396    0.0000 O    0  0  0  0  0  0  0  0  0  0  0  0
    4.2624    1.8673    0.0000 N    0  0  0  0  0  0  0  0  0  0  0  0
    4.5932    0.4179    0.0000 C    0  0  0  0  0  0  0  0  0  0  0  0
    3.8499    0.0600    0.0000 C    0  0  0  0  0  0  0  0  0  0  0  0
    4.7768    1.2223    0.0000 C    0  0  0  0  0  0  0  0  0  0  0  0
    3.1066    0.4179    0.0000 C    0  0  0  0  0  0  0  0  0  0  0  0
    2.9230    1.2223    0.0000 C    0  0  0  0  0  0  0  0  0  0  0  0
    3.4373    1.8673    0.0000 C    0  0  0  0  0  0  0  0  0  0  0  0
    5.2382   -0.0965    0.0000 C    0  0  0  0  0  0  0  0  0  0  0  0
    3.9273   -0.7959    0.0000 C    0  0  0  0  0  0  0  0  0  0  0  0
    2.3892   -0.0552    0.0000 C    0  0  0  0  0  0  0  0  0  0  0  0
    3.2210   -1.2855    0.0000 C    0  0  0  0  0  0  0  0  0  0  0  0
    6.0062    0.2049    0.0000 C    0  0  0  0  0  0  0  0  0  0  0  0
    5.1153   -0.9123    0.0000 C    0  0  0  0  0  0  0  0  0  0  0  0
    2.4467   -0.9126    0.0000 C    0  0  0  0  0  0  0  0  0  0  0  0
    6.6512   -0.3095    0.0000 C    0  0  0  0  0  0  0  0  0  0  0  0
    5.7603   -1.4267    0.0000 C    0  0  0  0  0  0  0  0  0  0  0  0
    6.5283   -1.1252    0.0000 C    0  0  0  0  0  0  0  0  0  0  0  0
  1 14  1  0  0  0  0
  2 15  1  0  0  0  0
  3 18  1  0  0  0  0
  4 21  1  0  0  0  0
  5  8  1  0  0  0  0
  5 11  1  0  0  0  0
  6  7  1  0  0  0  0
  6  8  1  0  0  0  0
  6 12  1  0  0  0  0
  7  9  1  0  0  0  0
  7 13  2  0  0  0  0
  9 10  1  0  0  0  0
  9 14  2  0  0  0  0
 10 11  1  0  0  0  0
 12 16  2  0  0  0  0
 12 17  1  0  0  0  0
 13 15  1  0  0  0  0
 14 18  1  0  0  0  0
 15 18  2  0  0  0  0
 16 19  1  0  0  0  0
 17 20  2  0  0  0  0
 19 21  2  0  0  0  0
 20 21  1  0  0  0  0
M  END
> <DRUGBANK_ID>
DB00800

> <DRUG_GROUPS>
approved

> <GENERIC_NAME>
Fenoldopam

> <SYNONYMS>
Fenoldopam; FÃ©noldopam; Fenoldopam; Fenoldopamum

> <SALTS>
Fenoldopam Mesilate; Fenoldopam Mesylate

> <BRANDS>
Corlopam

> <CHEMICAL_FORMULA>
C16H16ClNO3

> <MOLECULAR_WEIGHT>
305.756

> <EXACT_MASS>
305.08187109

> <IUPAC_NAME>
6-chloro-1-(4-hydroxyphenyl)-2,3,4,5-tetrahydro-1H-3-benzazepine-7,8-diol

> <IUPAC_TRADITIONAL_NAME>
fenoldopam

> <INCHI_IDENTIFIER>
InChI=1S/C16H16ClNO3/c17-15-11-5-6-18-8-13(9-1-3-10(19)4-2-9)12(11)7-14(20)16(15)21/h1-4,7,13,18-21H,5-6,8H2

> <INCHI_KEY>
InChIKey=TVURRHSHRRELCG-UHFFFAOYSA-N

> <SMILES>
OC1=CC=C(C=C1)C1CNCCC2=C(Cl)C(O)=C(O)C=C12

> <JCHEM_ACCEPTOR_COUNT>
4

> <JCHEM_DONOR_COUNT>
4

> <JCHEM_ACIDIC_PKA>
8.12

> <JCHEM_BASIC_PKA>
10.4

> <JCHEM_PHYSIOLOGICAL_CHARGE>
1

> <ALOGPS_LOGP>
2.39

> <JCHEM_LOGP>
1.92

> <ALOGPS_LOGS>
-3

> <JCHEM_POLARIZABILITY>
30.71

> <JCHEM_POLAR_SURFACE_AREA>
72.72

> <JCHEM_REFRACTIVITY>
82.68

> <JCHEM_ROTATABLE_BOND_COUNT>
1

> <ALOGPS_SOLUBILITY>
2.72e-01 g/l __ 

$$$$
