210
  Mrv0541 02231214312D          

 31 36  0  0  0  0            999 V2000
    2.4469   -3.8851    0.0000 O   0  0  0  0  0  0  0  0  0  0  0  0
    2.9958    3.7168    0.0000 O   0  0  0  0  0  0  0  0  0  0  0  0
    4.3746    3.3417    0.0000 O   0  0  0  0  0  0  0  0  0  0  0  0
    4.0407   -3.4580    0.0000 C   0  0  0  0  0  0  0  0  0  0  0  0
    4.1604   -3.8170    0.0000 C   0  0  0  0  0  0  0  0  0  0  0  0
    5.4205   -3.4580    0.0000 C   0  0  0  0  0  0  0  0  0  0  0  0
    4.7306   -2.2632    0.0000 C   0  0  0  0  0  0  0  0  0  0  0  0
    3.3504   -3.8563    0.0000 C   0  0  0  0  0  0  0  0  0  0  0  0
    4.7306   -3.7078    0.0000 C   0  0  0  0  0  0  0  0  0  0  0  0
    4.0407   -2.6615    0.0000 C   0  0  0  0  0  0  0  0  0  0  0  0
    4.9076   -4.2103    0.0000 C   0  0  0  0  0  0  0  0  0  0  0  0
    4.1604   -2.9546    0.0000 C   0  0  0  0  0  0  0  0  0  0  0  0
    5.4205   -2.6615    0.0000 C   0  0  0  0  0  0  0  0  0  0  0  0
    3.4574   -2.8747    0.0000 C   0  0  0  0  0  0  0  0  0  0  0  0
    2.6604   -3.0883    0.0000 C   0  0  0  0  0  0  0  0  0  0  0  0
    3.6709   -2.0778    0.0000 C   0  0  0  0  0  0  0  0  0  0  0  0
    3.0875   -1.4944    0.0000 C   0  0  0  0  0  0  0  0  0  0  0  0
    2.0770   -2.5049    0.0000 C   0  0  0  0  0  0  0  0  0  0  0  0
    2.2906   -1.7079    0.0000 C   0  0  0  0  0  0  0  0  0  0  0  0
    3.3010   -0.6975    0.0000 C   0  0  0  0  0  0  0  0  0  0  0  0
    1.6500   -4.0986    0.0000 C   0  0  0  0  0  0  0  0  0  0  0  0
    2.7177   -0.1142    0.0000 C   0  0  0  0  0  0  0  0  0  0  0  0
    4.0979   -0.4840    0.0000 C   0  0  0  0  0  0  0  0  0  0  0  0
    2.9312    0.6828    0.0000 C   0  0  0  0  0  0  0  0  0  0  0  0
    4.3114    0.3129    0.0000 C   0  0  0  0  0  0  0  0  0  0  0  0
    3.7280    0.8963    0.0000 C   0  0  0  0  0  0  0  0  0  0  0  0
    2.3142    1.2810    0.0000 C   0  0  0  0  0  0  0  0  0  0  0  0
    3.9633    1.7228    0.0000 C   0  0  0  0  0  0  0  0  0  0  0  0
    2.5302    2.1127    0.0000 C   0  0  0  0  0  0  0  0  0  0  0  0
    3.3603    2.3351    0.0000 C   0  0  0  0  0  0  0  0  0  0  0  0
    3.5769    3.1312    0.0000 C   0  0  0  0  0  0  0  0  0  0  0  0
  1 15  1  0  0  0  0
  1 21  1  0  0  0  0
  2 31  1  0  0  0  0
  3 31  2  0  0  0  0
  4  8  1  0  0  0  0
  4  9  1  0  0  0  0
  4 10  1  0  0  0  0
  4 14  1  0  0  0  0
  5  8  1  0  0  0  0
  5 11  1  0  0  0  0
  5 12  1  0  0  0  0
  6  9  1  0  0  0  0
  6 11  1  0  0  0  0
  6 13  1  0  0  0  0
  7 10  1  0  0  0  0
  7 12  1  0  0  0  0
  7 13  1  0  0  0  0
 14 15  2  0  0  0  0
 14 16  1  0  0  0  0
 15 18  1  0  0  0  0
 16 17  2  0  0  0  0
 17 19  1  0  0  0  0
 17 20  1  0  0  0  0
 18 19  2  0  0  0  0
 20 22  2  0  0  0  0
 20 23  1  0  0  0  0
 22 24  1  0  0  0  0
 23 25  2  0  0  0  0
 24 26  2  0  0  0  0
 24 27  1  0  0  0  0
 25 26  1  0  0  0  0
 26 28  1  0  0  0  0
 27 29  2  0  0  0  0
 28 30  2  0  0  0  0
 29 30  1  0  0  0  0
 30 31  1  0  0  0  0
M  END
> <DRUGBANK_ID>
DB00210

> <DRUG_GROUPS>
approved

> <GENERIC_NAME>
Adapalene

> <SYNONYMS>
Adapaleno; Adapalenum

> <BRANDS>
Adaferin; Differin

> <CHEMICAL_FORMULA>
C28H28O3

> <MOLECULAR_WEIGHT>
412.5201

> <EXACT_MASS>
412.203844762

> <IUPAC_NAME>
6-[3-(adamantan-1-yl)-4-methoxyphenyl]naphthalene-2-carboxylic acid

> <IUPAC_TRADITIONAL_NAME>
adapalene

> <INCHI_IDENTIFIER>
InChI=1S/C28H28O3/c1-31-26-7-6-23(21-2-3-22-12-24(27(29)30)5-4-20(22)11-21)13-25(26)28-14-17-8-18(15-28)10-19(9-17)16-28/h2-7,11-13,17-19H,8-10,14-16H2,1H3,(H,29,30)

> <INCHI_KEY>
InChIKey=LZCDAPDGXCYOEH-UHFFFAOYSA-N

> <SMILES>
COC1=C(C=C(C=C1)C1=CC2=C(C=C1)C=C(C=C2)C(O)=O)C12CC3CC(CC(C3)C1)C2

> <JCHEM_ACCEPTOR_COUNT>
3

> <JCHEM_DONOR_COUNT>
1

> <JCHEM_ACIDIC_PKA>
3.99

> <JCHEM_BASIC_PKA>
-4.8

> <JCHEM_PHYSIOLOGICAL_CHARGE>
-1

> <ALOGPS_LOGP>
6.06

> <JCHEM_LOGP>
6.46

> <ALOGPS_LOGS>
-8

> <JCHEM_POLARIZABILITY>
47.65

> <JCHEM_POLAR_SURFACE_AREA>
46.53

> <JCHEM_REFRACTIVITY>
122.07

> <JCHEM_ROTATABLE_BOND_COUNT>
4

> <ALOGPS_SOLUBILITY>
4.01e-06 g/l __ 

$$$$
