320
  Mrv0541 02231214362D          

 46 53  0  0  1  0            999 V2000
    3.6245    0.4404    0.0000 O   0  0  0  0  0  0  0  0  0  0  0  0
    2.7811    0.9170    0.0000 O   0  0  0  0  0  0  0  0  0  0  0  0
    3.7828    3.7179    0.0000 O   0  0  0  0  0  0  0  0  0  0  0  0
    5.6557    1.0731    0.0000 O   0  0  0  0  0  0  0  0  0  0  0  0
    4.4339   -1.3764    0.0000 O   0  0  0  0  0  0  0  0  0  0  0  0
    4.2860    1.5939    0.0000 N   0  0  0  0  0  0  0  0  0  0  0  0
    2.9473    2.5586    0.0000 N   0  0  0  0  0  0  0  0  0  0  0  0
    7.3480   -1.3766    0.0000 N   0  0  0  0  0  0  0  0  0  0  0  0
    5.1436   -0.1361    0.0000 N   0  0  0  0  0  0  0  0  0  0  0  0
    8.3230   -4.7727    0.0000 N   0  0  0  0  0  0  0  0  0  0  0  0
    2.8642    1.7378    0.0000 C   0  0  2  0  0  0  0  0  0  0  0  0
    3.5335    1.2554    0.0000 C   0  0  2  0  0  0  0  0  0  0  0  0
    6.6203   -2.6484    0.0000 C   0  0  2  0  0  0  0  0  0  0  0  0
    7.3347   -2.2359    0.0000 C   0  0  1  0  0  0  0  0  0  0  0  0
    2.0622    1.5663    0.0000 C   0  0  0  0  0  0  0  0  0  0  0  0
    4.3690    2.4147    0.0000 C   0  0  2  0  0  0  0  0  0  0  0  0
    4.4275    0.2737    0.0000 C   0  0  1  0  0  0  0  0  0  0  0  0
    5.8628   -1.3708    0.0000 C   0  0  2  0  0  0  0  0  0  0  0  0
    5.8695   -2.2302    0.0000 C   0  0  0  0  0  0  0  0  0  0  0  0
    2.1959    2.8873    0.0000 C   0  0  0  0  0  0  0  0  0  0  0  0
    1.6500    2.2753    0.0000 C   0  0  0  0  0  0  0  0  0  0  0  0
    3.6997    2.8970    0.0000 C   0  0  0  0  0  0  0  0  0  0  0  0
    4.8355    0.9852    0.0000 C   0  0  0  0  0  0  0  0  0  0  0  0
    6.6071   -0.9412    0.0000 C   0  0  0  0  0  0  0  0  0  0  0  0
    8.0492   -2.6484    0.0000 C   0  0  0  0  0  0  0  0  0  0  0  0
    6.6203   -3.4734    0.0000 C   0  0  0  0  0  0  0  0  0  0  0  0
    5.1214    2.7532    0.0000 C   0  0  0  0  0  0  0  0  0  0  0  0
    5.1468   -0.9611    0.0000 C   0  0  0  0  0  0  0  0  0  0  0  0
    7.3347   -3.8859    0.0000 C   0  0  0  0  0  0  0  0  0  0  0  0
    8.0492   -3.4734    0.0000 C   0  0  0  0  0  0  0  0  0  0  0  0
    4.2591   -0.5340    0.0000 C   0  0  0  0  0  0  0  0  0  0  0  0
    8.0672   -0.9724    0.0000 C   0  0  0  0  0  0  0  0  0  0  0  0
    7.3480   -4.7452    0.0000 C   0  0  0  0  0  0  0  0  0  0  0  0
    5.8695   -3.8915    0.0000 C   0  0  0  0  0  0  0  0  0  0  0  0
    8.6572   -4.0238    0.0000 C   0  0  0  0  0  0  0  0  0  0  0  0
    5.2044    3.5740    0.0000 C   0  0  0  0  0  0  0  0  0  0  0  0
    6.6071   -5.1805    0.0000 C   0  0  0  0  0  0  0  0  0  0  0  0
    5.8628   -4.7509    0.0000 C   0  0  0  0  0  0  0  0  0  0  0  0
    5.9569    3.9125    0.0000 C   0  0  0  0  0  0  0  0  0  0  0  0
    4.5351    4.0564    0.0000 C   0  0  0  0  0  0  0  0  0  0  0  0
    6.0399    4.7333    0.0000 C   0  0  0  0  0  0  0  0  0  0  0  0
    4.6182    4.8772    0.0000 C   0  0  0  0  0  0  0  0  0  0  0  0
    5.3706    5.2157    0.0000 C   0  0  0  0  0  0  0  0  0  0  0  0
    2.7287    1.0918    0.0000 H   0  0  0  0  0  0  0  0  0  0  0  0
    6.0512   -2.9828    0.0000 H   0  0  0  0  0  0  0  0  0  0  0  0
    7.9088   -1.9102    0.0000 H   0  0  0  0  0  0  0  0  0  0  0  0
  1 12  1  0  0  0  0
  1 17  1  0  0  0  0
 12  2  1  6  0  0  0
  3 22  2  0  0  0  0
  4 23  2  0  0  0  0
  5 28  2  0  0  0  0
  6 12  1  0  0  0  0
  6 16  1  0  0  0  0
  6 23  1  0  0  0  0
  7 11  1  0  0  0  0
  7 20  1  0  0  0  0
  7 22  1  0  0  0  0
  8 14  1  0  0  0  0
  8 24  1  0  0  0  0
  8 32  1  0  0  0  0
 17  9  1  6  0  0  0
  9 28  1  0  0  0  0
 10 33  1  0  0  0  0
 10 35  1  0  0  0  0
 11 12  1  0  0  0  0
 11 15  1  0  0  0  0
 11 44  1  1  0  0  0
 13 14  1  0  0  0  0
 13 19  1  0  0  0  0
 13 26  1  0  0  0  0
 13 45  1  6  0  0  0
 14 25  1  0  0  0  0
 14 46  1  1  0  0  0
 15 21  1  0  0  0  0
 16 22  1  0  0  0  0
 16 27  1  6  0  0  0
 17 23  1  0  0  0  0
 17 31  1  0  0  0  0
 18 19  1  0  0  0  0
 18 24  1  0  0  0  0
 18 28  1  1  0  0  0
 20 21  1  0  0  0  0
 25 30  1  0  0  0  0
 26 29  2  0  0  0  0
 26 34  1  0  0  0  0
 27 36  1  0  0  0  0
 29 30  1  0  0  0  0
 29 33  1  0  0  0  0
 30 35  2  0  0  0  0
 33 37  2  0  0  0  0
 34 38  2  0  0  0  0
 36 39  2  0  0  0  0
 36 40  1  0  0  0  0
 37 38  1  0  0  0  0
 39 41  1  0  0  0  0
 40 42  2  0  0  0  0
 41 43  2  0  0  0  0
 42 43  1  0  0  0  0
M  END
> <DRUGBANK_ID>
DB00320

> <DRUG_GROUPS>
approved

> <GENERIC_NAME>
Dihydroergotamine

> <SYNONYMS>
9,10-dihydroergotamine; Dihidroergotamina; Dihydroergotaminum

> <SALTS>
Dihydroergotamine mesylate

> <BRANDS>
D.H.E. 45; Dihydergot; Ergont; Ergotonin; Ikaran; Migranal; Orstanorm; Verladyn

> <CHEMICAL_FORMULA>
C33H37N5O5

> <MOLECULAR_WEIGHT>
583.6774

> <EXACT_MASS>
583.279469319

> <IUPAC_NAME>
(2R,4R,7R)-N-[(1S,2S,4R,7S)-7-benzyl-2-hydroxy-4-methyl-5,8-dioxo-3-oxa-6,9-diazatricyclo[7.3.0.0^{2,6}]dodecan-4-yl]-6-methyl-6,11-diazatetracyclo[7.6.1.0^{2,7}.0^{12,16}]hexadeca-1(16),9,12,14-tetraene-4-carboxamide

> <IUPAC_TRADITIONAL_NAME>
dihydroergotamine

> <INCHI_IDENTIFIER>
InChI=1S/C33H37N5O5/c1-32(35-29(39)21-15-23-22-10-6-11-24-28(22)20(17-34-24)16-25(23)36(2)18-21)31(41)38-26(14-19-8-4-3-5-9-19)30(40)37-13-7-12-27(37)33(38,42)43-32/h3-6,8-11,17,21,23,25-27,34,42H,7,12-16,18H2,1-2H3,(H,35,39)/t21-,23-,25-,26+,27+,32-,33+/m1/s1

> <INCHI_KEY>
InChIKey=LUZRJRNZXALNLM-JGRZULCMSA-N

> <SMILES>
[H][C@@]12CCCN1C(=O)[C@H](CC1=CC=CC=C1)N1C(=O)[C@](C)(NC(=O)[C@H]3CN(C)[C@]4([H])CC5=CNC6=CC=CC(=C56)[C@@]4([H])C3)O[C@@]21O

> <JCHEM_ACCEPTOR_COUNT>
6

> <JCHEM_DONOR_COUNT>
3

> <JCHEM_ACIDIC_PKA>
9.71

> <JCHEM_BASIC_PKA>
8.39

> <JCHEM_PHYSIOLOGICAL_CHARGE>
1

> <ALOGPS_LOGP>
3.04

> <JCHEM_LOGP>
2.71

> <ALOGPS_LOGS>
-3.4

> <JCHEM_POLARIZABILITY>
63.3

> <JCHEM_POLAR_SURFACE_AREA>
118.21

> <JCHEM_REFRACTIVITY>
159.39

> <JCHEM_ROTATABLE_BOND_COUNT>
4

> <ALOGPS_SOLUBILITY>
2.29e-01 g/l __ 

$$$$
