478
  Mrv0541 02231214422D          

 13 15  0  0  1  0            999 V2000
    3.8090    1.3595    0.0000 N   0  0  0  0  0  0  0  0  0  0  0  0
    3.0823    0.1008    0.0000 C   0  0  0  0  0  0  0  0  0  0  0  0
    2.3806   -1.1146    0.0000 C   0  0  0  0  0  0  0  0  0  0  0  0
    2.5023   -1.4797    0.0000 C   0  0  0  0  0  0  0  0  0  0  0  0
    3.7840   -1.1146    0.0000 C   0  0  0  0  0  0  0  0  0  0  0  0
    2.3806   -0.3044    0.0000 C   0  0  0  0  0  0  0  0  0  0  0  0
    2.5023   -0.6026    0.0000 C   0  0  0  0  0  0  0  0  0  0  0  0
    3.7840   -0.3044    0.0000 C   0  0  0  0  0  0  0  0  0  0  0  0
    1.6783   -1.5197    0.0000 C   0  0  0  0  0  0  0  0  0  0  0  0
    3.0823   -1.3687    0.0000 C   0  0  0  0  0  0  0  0  0  0  0  0
    3.2623   -1.8799    0.0000 C   0  0  0  0  0  0  0  0  0  0  0  0
    3.0823    0.9399    0.0000 C   0  0  0  0  0  0  0  0  0  0  0  0
    2.3555    1.3595    0.0000 C   0  0  0  0  0  0  0  0  0  0  0  0
  1 12  1  0  0  0  0
  2  6  1  0  0  0  0
  2  7  1  0  0  0  0
  2  8  1  0  0  0  0
  2 12  1  0  0  0  0
  3  6  1  0  0  0  0
  3  9  1  0  0  0  0
  3 10  1  0  0  0  0
  4  7  1  0  0  0  0
  4  9  1  0  0  0  0
  4 11  1  0  0  0  0
  5  8  1  0  0  0  0
  5 10  1  0  0  0  0
  5 11  1  0  0  0  0
 12 13  1  0  0  0  0
M  END
> <DRUGBANK_ID>
DB00478

> <DRUG_GROUPS>
approved

> <GENERIC_NAME>
Rimantadine

> <SALTS>
Rimantadine Hydrochloride

> <BRANDS>
Flumadine

> <CHEMICAL_FORMULA>
C12H21N

> <MOLECULAR_WEIGHT>
179.3018

> <EXACT_MASS>
179.167399677

> <IUPAC_NAME>
1-(adamantan-1-yl)ethan-1-amine

> <IUPAC_TRADITIONAL_NAME>
rimantadine

> <INCHI_IDENTIFIER>
InChI=1S/C12H21N/c1-8(13)12-5-9-2-10(6-12)4-11(3-9)7-12/h8-11H,2-7,13H2,1H3

> <INCHI_KEY>
InChIKey=UBCHPRBFMUDMNC-UHFFFAOYSA-N

> <SMILES>
CC(N)C12CC3CC(CC(C3)C1)C2

> <JCHEM_ACCEPTOR_COUNT>
1

> <JCHEM_DONOR_COUNT>
1

> <JCHEM_BASIC_PKA>
10.14

> <JCHEM_PHYSIOLOGICAL_CHARGE>
1

> <ALOGPS_LOGP>
3.28

> <JCHEM_LOGP>
2.22

> <ALOGPS_LOGS>
-4.3

> <JCHEM_POLARIZABILITY>
21.79

> <JCHEM_POLAR_SURFACE_AREA>
26.02

> <JCHEM_REFRACTIVITY>
54.52

> <JCHEM_ROTATABLE_BOND_COUNT>
1

> <ALOGPS_SOLUBILITY>
9.15e-03 g/l __ 

$$$$
