976
  Mrv0541 02231215092D          

 58 62  0  0  1  0            999 V2000
    2.3645   -0.6235    0.0000 O   0  0  0  0  0  0  0  0  0  0  0  0
    4.5701   -0.9397    0.0000 O   0  0  0  0  0  0  0  0  0  0  0  0
    7.9633    0.7275    0.0000 O   0  0  0  0  0  0  0  0  0  0  0  0
    7.2549    1.5671    0.0000 O   0  0  0  0  0  0  0  0  0  0  0  0
    8.3397   -0.6510    0.0000 O   0  0  0  0  0  0  0  0  0  0  0  0
    3.8173    1.8173    0.0000 O   0  0  0  0  0  0  0  0  0  0  0  0
    1.2673    0.3550    0.0000 O   0  0  0  0  0  0  0  0  0  0  0  0
    9.5550    1.1621    0.0000 O   0  0  0  0  0  0  0  0  0  0  0  0
    5.5757    0.0755    0.0000 O   0  0  0  0  0  0  0  0  0  0  0  0
    4.9465   -2.3182    0.0000 O   0  0  0  0  0  0  0  0  0  0  0  0
    2.7038    0.6675    0.0000 N   0  0  0  0  0  0  0  0  0  0  0  0
   10.7273    0.0009    0.0000 N   0  0  0  0  0  0  0  0  0  0  0  0
    1.0888    3.8805    0.0000 N   0  0  0  0  0  0  0  0  0  0  0  0
    1.4282    5.1716    0.0000 N   0  0  0  0  0  0  0  0  0  0  0  0
   -0.1480    7.1734    0.0000 N   0  0  0  0  0  0  0  0  0  0  0  0
    3.3979    0.2215    0.0000 C   0  0  1  0  0  0  0  0  0  0  0  0
    3.1881   -0.5764    0.0000 C   0  0  2  0  0  0  0  0  0  0  0  0
    4.1937    0.4388    0.0000 C   0  0  2  0  0  0  0  0  0  0  0  0
    3.7742   -1.1570    0.0000 C   0  0  2  0  0  0  0  0  0  0  0  0
    6.5813    1.0907    0.0000 C   0  0  2  0  0  0  0  0  0  0  0  0
    5.1993    1.4540    0.0000 C   0  0  1  0  0  0  0  0  0  0  0  0
    4.4034    1.2367    0.0000 C   0  0  0  0  0  0  0  0  0  0  0  0
    5.7854    0.8734    0.0000 C   0  0  0  0  0  0  0  0  0  0  0  0
    7.1674    0.5101    0.0000 C   0  0  1  0  0  0  0  0  0  0  0  0
    2.8961   -1.3480    0.0000 C   0  0  0  0  0  0  0  0  0  0  0  0
    2.0652    0.1453    0.0000 C   0  0  0  0  0  0  0  0  0  0  0  0
    2.6567    1.4912    0.0000 C   0  0  0  0  0  0  0  0  0  0  0  0
    4.7798   -0.1418    0.0000 C   0  0  0  0  0  0  0  0  0  0  0  0
    3.5645   -1.9549    0.0000 C   0  0  0  0  0  0  0  0  0  0  0  0
    6.9577   -0.2878    0.0000 C   0  0  2  0  0  0  0  0  0  0  0  0
    6.2291    1.8368    0.0000 C   0  0  0  0  0  0  0  0  0  0  0  0
    8.5494    0.1469    0.0000 C   0  0  2  0  0  0  0  0  0  0  0  0
    5.4090    2.2519    0.0000 C   0  0  0  0  0  0  0  0  0  0  0  0
    1.9199    1.8622    0.0000 C   0  0  0  0  0  0  0  0  0  0  0  0
    9.3453    0.3642    0.0000 C   0  0  1  0  0  0  0  0  0  0  0  0
    9.9314   -0.2164    0.0000 C   0  0  2  0  0  0  0  0  0  0  0  0
    6.1618   -0.5051    0.0000 C   0  0  0  0  0  0  0  0  0  0  0  0
    5.9521   -1.3030    0.0000 C   0  0  2  0  0  0  0  0  0  0  0  0
    9.7217   -1.0143    0.0000 C   0  0  0  0  0  0  0  0  0  0  0  0
    2.7687   -2.1722    0.0000 C   0  0  0  0  0  0  0  0  0  0  0  0
    5.1562   -1.5203    0.0000 C   0  0  0  0  0  0  0  0  0  0  0  0
    7.5438   -0.8683    0.0000 C   0  0  0  0  0  0  0  0  0  0  0  0
    8.9258   -1.2316    0.0000 C   0  0  1  0  0  0  0  0  0  0  0  0
    1.8728    2.6858    0.0000 C   0  0  0  0  0  0  0  0  0  0  0  0
    6.5382   -1.8835    0.0000 C   0  0  0  0  0  0  0  0  0  0  0  0
    8.0042    1.2220    0.0000 C   0  0  0  0  0  0  0  0  0  0  0  0
    8.7161   -2.0295    0.0000 C   0  0  0  0  0  0  0  0  0  0  0  0
    1.1359    3.0569    0.0000 C   0  0  0  0  0  0  0  0  0  0  0  0
   11.3134   -0.5797    0.0000 C   0  0  0  0  0  0  0  0  0  0  0  0
   10.9370    0.7988    0.0000 C   0  0  0  0  0  0  0  0  0  0  0  0
    0.3948    4.3266    0.0000 C   0  0  0  0  0  0  0  0  0  0  0  0
    1.7275    4.4028    0.0000 C   0  0  0  0  0  0  0  0  0  0  0  0
    0.6045    5.1245    0.0000 C   0  0  0  0  0  0  0  0  0  0  0  0
    0.0823    5.7631    0.0000 C   0  0  0  0  0  0  0  0  0  0  0  0
   -0.7319    5.6302    0.0000 C   0  0  0  0  0  0  0  0  0  0  0  0
    0.3743    6.5347    0.0000 C   0  0  0  0  0  0  0  0  0  0  0  0
   -1.2542    6.2689    0.0000 C   0  0  0  0  0  0  0  0  0  0  0  0
   -0.9622    7.0405    0.0000 C   0  0  0  0  0  0  0  0  0  0  0  0
  1 17  1  0  0  0  0
  1 26  1  0  0  0  0
  2 19  1  0  0  0  0
  2 41  1  0  0  0  0
 24  3  1  6  0  0  0
 32  3  1  1  0  0  0
 20  4  1  1  0  0  0
  4 46  1  0  0  0  0
  5 32  1  0  0  0  0
  5 43  1  0  0  0  0
  6 22  2  0  0  0  0
  7 26  2  0  0  0  0
 35  8  1  6  0  0  0
  9 37  2  0  0  0  0
 10 41  2  0  0  0  0
 16 11  1  6  0  0  0
 11 26  1  0  0  0  0
 11 27  1  0  0  0  0
 36 12  1  1  0  0  0
 12 49  1  0  0  0  0
 12 50  1  0  0  0  0
 13 48  1  0  0  0  0
 13 51  1  0  0  0  0
 13 52  1  0  0  0  0
 14 52  2  0  0  0  0
 14 53  1  0  0  0  0
 15 56  2  0  0  0  0
 15 58  1  0  0  0  0
 16 17  1  0  0  0  0
 16 18  1  0  0  0  0
 17 19  1  0  0  0  0
 17 25  1  1  0  0  0
 18 22  1  0  0  0  0
 18 28  1  6  0  0  0
 19 29  1  1  0  0  0
 20 23  1  0  0  0  0
 20 24  1  0  0  0  0
 20 31  1  6  0  0  0
 21 22  1  0  0  0  0
 21 23  1  0  0  0  0
 21 33  1  6  0  0  0
 24 30  1  0  0  0  0
 27 34  1  0  0  0  0
 29 40  1  0  0  0  0
 30 37  1  0  0  0  0
 30 42  1  1  0  0  0
 32 35  1  0  0  0  0
 34 44  1  0  0  0  0
 35 36  1  0  0  0  0
 36 39  1  0  0  0  0
 37 38  1  0  0  0  0
 38 41  1  0  0  0  0
 38 45  1  1  0  0  0
 39 43  1  0  0  0  0
 43 47  1  1  0  0  0
 44 48  1  0  0  0  0
 51 53  2  0  0  0  0
 53 54  1  0  0  0  0
 54 55  2  0  0  0  0
 54 56  1  0  0  0  0
 55 57  1  0  0  0  0
 57 58  2  0  0  0  0
M  END
> <DRUGBANK_ID>
DB00976

> <DRUG_GROUPS>
approved

> <GENERIC_NAME>
Telithromycin

> <BRANDS>


> <CHEMICAL_FORMULA>
C43H65N5O10

> <MOLECULAR_WEIGHT>
812.0037

> <EXACT_MASS>
811.473143325

> <IUPAC_NAME>
(3aR,4S,7R,9R,10R,11R,13R,15R,15aR)-10-{[(2S,3R,4S,6R)-4-(dimethylamino)-3-hydroxy-6-methyloxan-2-yl]oxy}-4-ethyl-11-methoxy-3a,7,9,11,13,15-hexamethyl-1-{4-[4-(pyridin-3-yl)-1H-imidazol-1-yl]butyl}-tetradecahydro-1H-oxacyclotetradeca[4,3-d][1,3]oxazole-2,6,8,14-tetrone

> <IUPAC_TRADITIONAL_NAME>
(3aR,4S,7R,9R,10R,11R,13R,15R,15aR)-10-{[(2S,3R,4S,6R)-4-(dimethylamino)-3-hydroxy-6-methyloxan-2-yl]oxy}-4-ethyl-11-methoxy-3a,7,9,11,13,15-hexamethyl-1-{4-[4-(pyridin-3-yl)imidazol-1-yl]butyl}-octahydrooxacyclotetradeca[4,3-d][1,3]oxazole-2,6,8,14-tetrone

> <INCHI_IDENTIFIER>
InChI=1S/C43H65N5O10/c1-12-33-43(8)37(48(41(53)58-43)19-14-13-18-47-23-31(45-24-47)30-16-15-17-44-22-30)27(4)34(49)25(2)21-42(7,54-11)38(28(5)35(50)29(6)39(52)56-33)57-40-36(51)32(46(9)10)20-26(3)55-40/h15-17,22-29,32-33,36-38,40,51H,12-14,18-21H2,1-11H3/t25-,26-,27+,28+,29-,32+,33+,36-,37-,38-,40+,42-,43+/m1/s1

> <INCHI_KEY>
InChIKey=LJVAJPDWBABPEJ-RMNISARHSA-N

> <SMILES>
CC[C@@H]1OC(=O)[C@H](C)C(=O)[C@H](C)[C@@H](O[C@@H]2O[C@H](C)C[C@@H]([C@H]2O)N(C)C)[C@@](C)(C[C@@H](C)C(=O)[C@H](C)[C@H]2N(CCCCN3C=NC(=C3)C3=CC=CN=C3)C(=O)O[C@@]12C)OC

> <JCHEM_ACCEPTOR_COUNT>
11

> <JCHEM_DONOR_COUNT>
1

> <JCHEM_ACIDIC_PKA>
8.84

> <JCHEM_BASIC_PKA>
7.65

> <JCHEM_PHYSIOLOGICAL_CHARGE>
1

> <ALOGPS_LOGP>
4

> <JCHEM_LOGP>
5.37

> <ALOGPS_LOGS>
-4.5

> <JCHEM_POLARIZABILITY>
89.27

> <JCHEM_POLAR_SURFACE_AREA>
171.85

> <JCHEM_REFRACTIVITY>
214.68

> <JCHEM_ROTATABLE_BOND_COUNT>
11

> <ALOGPS_SOLUBILITY>
2.83e-02 g/l __ 

$$$$
