285
  Mrv0541 02231214342D          

 20 21  0  0  1  0            999 V2000
    2.1615    0.1106    0.0000 O   0  0  0  0  0  0  0  0  0  0  0  0
    6.2866    0.1106    0.0000 O   0  0  0  0  0  0  0  0  0  0  0  0
    2.9866    1.5395    0.0000 N   0  0  0  0  0  0  0  0  0  0  0  0
    2.5741   -0.6040    0.0000 C   0  0  0  0  0  0  0  0  0  0  0  0
    2.9866    0.1106    0.0000 C   0  0  0  0  0  0  0  0  0  0  0  0
    1.8596   -1.0165    0.0000 C   0  0  0  0  0  0  0  0  0  0  0  0
    3.2885   -1.0165    0.0000 C   0  0  0  0  0  0  0  0  0  0  0  0
    1.8596   -1.8415    0.0000 C   0  0  0  0  0  0  0  0  0  0  0  0
    3.2885   -1.8415    0.0000 C   0  0  0  0  0  0  0  0  0  0  0  0
    2.5741   -2.2540    0.0000 C   0  0  0  0  0  0  0  0  0  0  0  0
    2.5741    0.8250    0.0000 C   0  0  0  0  0  0  0  0  0  0  0  0
    3.8116    0.1106    0.0000 C   0  0  0  0  0  0  0  0  0  0  0  0
    4.2241    0.8250    0.0000 C   0  0  0  0  0  0  0  0  0  0  0  0
    4.2241   -0.6040    0.0000 C   0  0  0  0  0  0  0  0  0  0  0  0
    2.5741    2.2540    0.0000 C   0  0  0  0  0  0  0  0  0  0  0  0
    3.8116    1.5395    0.0000 C   0  0  0  0  0  0  0  0  0  0  0  0
    5.0491    0.8250    0.0000 C   0  0  0  0  0  0  0  0  0  0  0  0
    5.0491   -0.6040    0.0000 C   0  0  0  0  0  0  0  0  0  0  0  0
    5.4616    0.1106    0.0000 C   0  0  0  0  0  0  0  0  0  0  0  0
    6.6991    0.8250    0.0000 C   0  0  0  0  0  0  0  0  0  0  0  0
  1  4  1  0  0  0  0
  2 19  1  0  0  0  0
  2 20  1  0  0  0  0
  3 11  1  0  0  0  0
  3 15  1  0  0  0  0
  3 16  1  0  0  0  0
  4  5  1  0  0  0  0
  4  6  1  0  0  0  0
  4  7  1  0  0  0  0
  5 11  1  0  0  0  0
  5 12  1  0  0  0  0
  6  8  1  0  0  0  0
  7  9  1  0  0  0  0
  8 10  1  0  0  0  0
  9 10  1  0  0  0  0
 12 13  2  0  0  0  0
 12 14  1  0  0  0  0
 13 17  1  0  0  0  0
 14 18  2  0  0  0  0
 17 19  2  0  0  0  0
 18 19  1  0  0  0  0
M  END
> <DRUGBANK_ID>
DB00285

> <DRUG_GROUPS>
approved

> <GENERIC_NAME>
Venlafaxine

> <SALTS>
Venlafaxine Hydrochloride 

> <BRANDS>
Effexor; Effexor XR; Elafax

> <CHEMICAL_FORMULA>
C17H27NO2

> <MOLECULAR_WEIGHT>
277.4018

> <EXACT_MASS>
277.204179113

> <IUPAC_NAME>
1-[2-(dimethylamino)-1-(4-methoxyphenyl)ethyl]cyclohexan-1-ol

> <IUPAC_TRADITIONAL_NAME>
venlafaxine

> <INCHI_IDENTIFIER>
InChI=1S/C17H27NO2/c1-18(2)13-16(17(19)11-5-4-6-12-17)14-7-9-15(20-3)10-8-14/h7-10,16,19H,4-6,11-13H2,1-3H3

> <INCHI_KEY>
InChIKey=PNVNVHUZROJLTJ-UHFFFAOYSA-N

> <SMILES>
COC1=CC=C(C=C1)C(CN(C)C)C1(O)CCCCC1

> <JCHEM_ACCEPTOR_COUNT>
3

> <JCHEM_DONOR_COUNT>
1

> <JCHEM_ACIDIC_PKA>
14.42

> <JCHEM_BASIC_PKA>
8.91

> <JCHEM_PHYSIOLOGICAL_CHARGE>
1

> <ALOGPS_LOGP>
2.69

> <JCHEM_LOGP>
2.74

> <ALOGPS_LOGS>
-3.1

> <JCHEM_POLARIZABILITY>
32.33

> <JCHEM_POLAR_SURFACE_AREA>
32.7

> <JCHEM_REFRACTIVITY>
83.02

> <JCHEM_ROTATABLE_BOND_COUNT>
5

> <ALOGPS_SOLUBILITY>
2.30e-01 g/l __ 

$$$$
