474
  Mrv0541 02231214422D          

 19 19  0  0  1  0            999 V2000
    4.7291   -0.5487    0.0000 O   0  0  0  0  0  0  0  0  0  0  0  0
    1.8711   -0.5487    0.0000 O   0  0  0  0  0  0  0  0  0  0  0  0
    3.3001   -3.0238    0.0000 O   0  0  0  0  0  0  0  0  0  0  0  0
    4.0145   -1.7862    0.0000 N   0  0  0  0  0  0  0  0  0  0  0  0
    2.5856   -1.7862    0.0000 N   0  0  0  0  0  0  0  0  0  0  0  0
    3.3001   -0.5487    0.0000 C   0  0  0  0  0  0  0  0  0  0  0  0
    3.7126    0.1658    0.0000 C   0  0  0  0  0  0  0  0  0  0  0  0
    2.8876    0.1658    0.0000 C   0  0  0  0  0  0  0  0  0  0  0  0
    4.0145   -0.9612    0.0000 C   0  0  0  0  0  0  0  0  0  0  0  0
    2.5856   -0.9612    0.0000 C   0  0  0  0  0  0  0  0  0  0  0  0
    4.5376    0.1658    0.0000 C   0  0  0  0  0  0  0  0  0  0  0  0
    3.3001   -2.1988    0.0000 C   0  0  0  0  0  0  0  0  0  0  0  0
    2.0625    0.1658    0.0000 C   0  0  0  0  0  0  0  0  0  0  0  0
    3.3001    0.8803    0.0000 C   0  0  0  0  0  0  0  0  0  0  0  0
    4.7291   -2.1988    0.0000 C   0  0  0  0  0  0  0  0  0  0  0  0
    1.6500    0.8803    0.0000 C   0  0  0  0  0  0  0  0  0  0  0  0
    2.8876    1.5948    0.0000 C   0  0  0  0  0  0  0  0  0  0  0  0
    2.4751    2.3092    0.0000 C   0  0  0  0  0  0  0  0  0  0  0  0
    2.8876    3.0238    0.0000 C   0  0  0  0  0  0  0  0  0  0  0  0
  1  9  2  0  0  0  0
  2 10  2  0  0  0  0
  3 12  2  0  0  0  0
  4  9  1  0  0  0  0
  4 12  1  0  0  0  0
  4 15  1  0  0  0  0
  5 10  1  0  0  0  0
  5 12  1  0  0  0  0
  6  7  1  0  0  0  0
  6  8  1  0  0  0  0
  6  9  1  0  0  0  0
  6 10  1  0  0  0  0
  7 11  1  0  0  0  0
  7 14  1  0  0  0  0
  8 13  1  0  0  0  0
 13 16  2  0  0  0  0
 14 17  3  0  0  0  0
 17 18  1  0  0  0  0
 18 19  1  0  0  0  0
M  END
> <DRUGBANK_ID>
DB00474

> <DRUG_GROUPS>
approved

> <GENERIC_NAME>
Methohexital

> <SYNONYMS>
Methohexitone

> <SALTS>
Methohexital sodium

> <BRANDS>
Brevital; Brietal

> <CHEMICAL_FORMULA>
C14H18N2O3

> <MOLECULAR_WEIGHT>
262.3043

> <EXACT_MASS>
262.131742452

> <IUPAC_NAME>
5-(hex-3-yn-2-yl)-1-methyl-5-(prop-2-en-1-yl)-1,3-diazinane-2,4,6-trione

> <IUPAC_TRADITIONAL_NAME>
methohexital

> <INCHI_IDENTIFIER>
InChI=1S/C14H18N2O3/c1-5-7-8-10(3)14(9-6-2)11(17)15-13(19)16(4)12(14)18/h6,10H,2,5,9H2,1,3-4H3,(H,15,17,19)

> <INCHI_KEY>
InChIKey=NZXKDOXHBHYTKP-UHFFFAOYSA-N

> <SMILES>
CCC#CC(C)C1(CC=C)C(=O)NC(=O)N(C)C1=O

> <JCHEM_ACCEPTOR_COUNT>
3

> <JCHEM_DONOR_COUNT>
1

> <JCHEM_ACIDIC_PKA>
8.73

> <JCHEM_PHYSIOLOGICAL_CHARGE>
0

> <ALOGPS_LOGP>
2.43

> <JCHEM_LOGP>
2.29

> <ALOGPS_LOGS>
-3.7

> <JCHEM_POLARIZABILITY>
27.4

> <JCHEM_POLAR_SURFACE_AREA>
66.48

> <JCHEM_REFRACTIVITY>
71.51

> <JCHEM_ROTATABLE_BOND_COUNT>
5

> <ALOGPS_SOLUBILITY>
5.24e-02 g/l __ 

$$$$
