642
  Mrv0541 02231214512D          

 31 33  0  0  1  0            999 V2000
    3.5220   -2.1250    0.0000 O   0  0  0  0  0  0  0  0  0  0  0  0
    6.5549    1.5941    0.0000 O   0  0  0  0  0  0  0  0  0  0  0  0
    9.2331    2.8886    0.0000 O   0  0  0  0  0  0  0  0  0  0  0  0
    9.5278    1.4904    0.0000 O   0  0  0  0  0  0  0  0  0  0  0  0
    7.5802    4.7308    0.0000 O   0  0  0  0  0  0  0  0  0  0  0  0
    6.5166    3.7765    0.0000 O   0  0  0  0  0  0  0  0  0  0  0  0
    5.0171   -4.4389    0.0000 N   0  0  0  0  0  0  0  0  0  0  0  0
    7.9132    1.1502    0.0000 N   0  0  0  0  0  0  0  0  0  0  0  0
    3.5220   -4.6001    0.0000 N   0  0  0  0  0  0  0  0  0  0  0  0
    2.8075   -3.3625    0.0000 N   0  0  0  0  0  0  0  0  0  0  0  0
    2.0930   -4.6001    0.0000 N   0  0  0  0  0  0  0  0  0  0  0  0
    5.2734   -2.3269    0.0000 C   0  0  0  0  0  0  0  0  0  0  0  0
    5.0171   -3.1111    0.0000 C   0  0  0  0  0  0  0  0  0  0  0  0
    6.0807   -2.1568    0.0000 C   0  0  0  0  0  0  0  0  0  0  0  0
    4.2365   -3.3625    0.0000 C   0  0  0  0  0  0  0  0  0  0  0  0
    6.3370   -1.3726    0.0000 C   0  0  0  0  0  0  0  0  0  0  0  0
    4.2365   -4.1875    0.0000 C   0  0  0  0  0  0  0  0  0  0  0  0
    5.4986   -3.7750    0.0000 C   0  0  0  0  0  0  0  0  0  0  0  0
    8.1695    1.9343    0.0000 C   0  0  2  0  0  0  0  0  0  0  0  0
    7.6185    2.5484    0.0000 C   0  0  0  0  0  0  0  0  0  0  0  0
    5.7860   -0.7585    0.0000 C   0  0  0  0  0  0  0  0  0  0  0  0
    7.1443   -1.2025    0.0000 C   0  0  0  0  0  0  0  0  0  0  0  0
    6.8496    0.1958    0.0000 C   0  0  0  0  0  0  0  0  0  0  0  0
    3.5220   -2.9500    0.0000 C   0  0  0  0  0  0  0  0  0  0  0  0
    7.8748    3.3326    0.0000 C   0  0  0  0  0  0  0  0  0  0  0  0
    6.0424    0.0257    0.0000 C   0  0  0  0  0  0  0  0  0  0  0  0
    7.4006   -0.4183    0.0000 C   0  0  0  0  0  0  0  0  0  0  0  0
    7.1059    0.9800    0.0000 C   0  0  0  0  0  0  0  0  0  0  0  0
    2.8075   -4.1875    0.0000 C   0  0  0  0  0  0  0  0  0  0  0  0
    8.9768    2.1045    0.0000 C   0  0  0  0  0  0  0  0  0  0  0  0
    7.3239    3.9466    0.0000 C   0  0  0  0  0  0  0  0  0  0  0  0
  1 24  2  0  0  0  0
  2 28  2  0  0  0  0
  3 30  1  0  0  0  0
  4 30  2  0  0  0  0
  5 31  1  0  0  0  0
  6 31  2  0  0  0  0
  7 17  1  0  0  0  0
  7 18  1  0  0  0  0
 19  8  1  6  0  0  0
  8 28  1  0  0  0  0
  9 17  1  0  0  0  0
  9 29  1  0  0  0  0
 10 24  1  0  0  0  0
 10 29  2  0  0  0  0
 11 29  1  0  0  0  0
 12 13  1  0  0  0  0
 12 14  1  0  0  0  0
 13 15  1  0  0  0  0
 13 18  2  0  0  0  0
 14 16  1  0  0  0  0
 15 17  2  0  0  0  0
 15 24  1  0  0  0  0
 16 21  2  0  0  0  0
 16 22  1  0  0  0  0
 19 20  1  0  0  0  0
 19 30  1  0  0  0  0
 20 25  1  0  0  0  0
 21 26  1  0  0  0  0
 22 27  2  0  0  0  0
 23 26  2  0  0  0  0
 23 27  1  0  0  0  0
 23 28  1  0  0  0  0
 25 31  1  0  0  0  0
M  END
> <DRUGBANK_ID>
DB00642

> <DRUG_GROUPS>
approved; investigational

> <GENERIC_NAME>
Pemetrexed

> <SALTS>
Pemetrexed disodium

> <BRANDS>
Alimta

> <CHEMICAL_FORMULA>
C20H21N5O6

> <MOLECULAR_WEIGHT>
427.4106

> <EXACT_MASS>
427.149183429

> <IUPAC_NAME>
(2R)-2-{[4-(2-{2-amino-4-oxo-1H,4H,7H-pyrrolo[2,3-d]pyrimidin-5-yl}ethyl)phenyl]formamido}pentanedioic acid

> <IUPAC_TRADITIONAL_NAME>
pemetrexed

> <INCHI_IDENTIFIER>
InChI=1S/C20H21N5O6/c21-20-24-16-15(18(29)25-20)12(9-22-16)6-3-10-1-4-11(5-2-10)17(28)23-13(19(30)31)7-8-14(26)27/h1-2,4-5,9,13H,3,6-8H2,(H,23,28)(H,26,27)(H,30,31)(H4,21,22,24,25,29)/t13-/m1/s1

> <INCHI_KEY>
InChIKey=WBXPDJSOTKVWSJ-CYBMUJFWSA-N

> <SMILES>
NC1=NC(=O)C2=C(NC=C2CCC2=CC=C(C=C2)C(=O)N[C@H](CCC(O)=O)C(O)=O)N1

> <JCHEM_ACCEPTOR_COUNT>
9

> <JCHEM_DONOR_COUNT>
6

> <JCHEM_ACIDIC_PKA>
3.34

> <JCHEM_BASIC_PKA>
0.96

> <JCHEM_PHYSIOLOGICAL_CHARGE>
-2

> <ALOGPS_LOGP>
0.11

> <JCHEM_LOGP>
0.73

> <ALOGPS_LOGS>
-4

> <JCHEM_POLARIZABILITY>
43.04

> <JCHEM_POLAR_SURFACE_AREA>
186.97

> <JCHEM_REFRACTIVITY>
109.45

> <JCHEM_ROTATABLE_BOND_COUNT>
9

> <ALOGPS_SOLUBILITY>
4.55e-02 g/l __ 

$$$$
