
  Mrv0541 09241312162D          

  7  6  0  0  0  0            999 V2000
    0.6124    0.2357    0.0000 C   0  0  0  0  0  0  0  0  0  0  0  0
   -0.1021   -0.1768    0.0000 C   0  0  2  0  0  0  0  0  0  0  0  0
   -0.8165    0.2357    0.0000 C   0  0  0  0  0  0  0  0  0  0  0  0
    1.3269   -0.1768    0.0000 O   0  0  0  0  0  0  0  0  0  0  0  0
    0.6124    1.0607    0.0000 O   0  0  0  0  0  0  0  0  0  0  0  0
   -0.1021   -1.0018    0.0000 N   0  0  0  0  0  0  0  0  0  0  0  0
   -1.5310   -0.1768    0.0000 S   0  0  0  0  0  0  0  0  0  0  0  0
  2  1  1  0  0  0  0
  5  1  2  0  0  0  0
  4  1  1  0  0  0  0
  3  2  1  0  0  0  0
  2  6  1  1  0  0  0
  7  3  1  0  0  0  0
M  END
> <DRUGBANK_ID>
DB00151

> <DRUG_GROUPS>
approved; nutraceutical

> <GENERIC_NAME>
L-Cysteine

> <SYNONYMS>
(2R)-2-amino-3-mercaptopropanoic acid; (2R)-2-amino-3-sulfanylpropanoic acid; (R)-2-Amino-3-mercaptopropanoic acid; Cys; L-2-Amino-3-mercaptopropionic acid; L-Cys

> <CHEMICAL_FORMULA>
C3H7NO2S

> <MOLECULAR_WEIGHT>
121.158

> <EXACT_MASS>
121.019749163

> <IUPAC_NAME>
(2R)-2-amino-3-sulfanylpropanoic acid

> <IUPAC_TRADITIONAL_NAME>
L-cysteine

> <INCHI_IDENTIFIER>
InChI=1/C3H7NO2S/c4-2(1-7)3(5)6/h2,7H,1,4H2,(H,5,6)/t2-/s2

> <INCHI_KEY>
InChIKey=XUJNEKJLAYXESH-RUOZJJLTNA-N

> <SMILES>
N[C@@H](CS)C(O)=O

> <JCHEM_ACCEPTOR_COUNT>
3

> <JCHEM_DONOR_COUNT>
3

> <JCHEM_ACIDIC_PKA>
2.35

> <JCHEM_BASIC_PKA>
9.05

> <JCHEM_PHYSIOLOGICAL_CHARGE>
0

> <ALOGPS_LOGP>
-2.6

> <JCHEM_LOGP>
-2.8

> <ALOGPS_LOGS>
-0.72

> <JCHEM_POLARIZABILITY>
11.41

> <JCHEM_POLAR_SURFACE_AREA>
63.32

> <JCHEM_REFRACTIVITY>
28.22

> <JCHEM_ROTATABLE_BOND_COUNT>
2

> <ALOGPS_SOLUBILITY>
2.31e+01 g/l __ 

$$$$
