441
  Mrv0541 02231214412D          

 18 19  0  0  1  0            999 V2000
    5.1206   -1.3156    0.0000 F   0  0  0  0  0  0  0  0  0  0  0  0
    4.8209   -0.3932    0.0000 F   0  0  0  0  0  0  0  0  0  0  0  0
    3.0011   -1.0607    0.0000 O   0  0  0  0  0  0  0  0  0  0  0  0
    4.5660   -2.5127    0.0000 O   0  0  0  0  0  0  0  0  0  0  0  0
    1.9506   -2.4265    0.0000 O   0  0  0  0  0  0  0  0  0  0  0  0
    2.2396    0.2492    0.0000 O   0  0  0  0  0  0  0  0  0  0  0  0
    3.6685    0.2492    0.0000 N   0  0  0  0  0  0  0  0  0  0  0  0
    2.9541    1.4867    0.0000 N   0  0  0  0  0  0  0  0  0  0  0  0
    3.6685    2.7242    0.0000 N   0  0  0  0  0  0  0  0  0  0  0  0
    4.0810   -1.8453    0.0000 C   0  0  1  0  0  0  0  0  0  0  0  0
    4.3361   -1.0607    0.0000 C   0  0  0  0  0  0  0  0  0  0  0  0
    3.2560   -1.8453    0.0000 C   0  0  1  0  0  0  0  0  0  0  0  0
    3.6685   -0.5758    0.0000 C   0  0  1  0  0  0  0  0  0  0  0  0
    2.7711   -2.5127    0.0000 C   0  0  0  0  0  0  0  0  0  0  0  0
    4.3831    0.6617    0.0000 C   0  0  0  0  0  0  0  0  0  0  0  0
    2.9541    0.6617    0.0000 C   0  0  0  0  0  0  0  0  0  0  0  0
    4.3831    1.4867    0.0000 C   0  0  0  0  0  0  0  0  0  0  0  0
    3.6685    1.8992    0.0000 C   0  0  0  0  0  0  0  0  0  0  0  0
  1 11  1  0  0  0  0
  2 11  1  0  0  0  0
  3 12  1  0  0  0  0
  3 13  1  0  0  0  0
 10  4  1  6  0  0  0
  5 14  1  0  0  0  0
  6 16  2  0  0  0  0
 13  7  1  1  0  0  0
  7 15  1  0  0  0  0
  7 16  1  0  0  0  0
  8 16  1  0  0  0  0
  8 18  2  0  0  0  0
  9 18  1  0  0  0  0
 10 11  1  0  0  0  0
 10 12  1  0  0  0  0
 11 13  1  0  0  0  0
 12 14  1  1  0  0  0
 15 17  2  0  0  0  0
 17 18  1  0  0  0  0
M  END
> <DRUGBANK_ID>
DB00441

> <DRUG_GROUPS>
approved

> <GENERIC_NAME>
Gemcitabine

> <SYNONYMS>
dFdC; dFdCyd; Difluorodeoxycytidine Hydrochlorothiazide

> <SALTS>
Gemcitabine Hydrochloride

> <BRANDS>
Gemzar

> <CHEMICAL_FORMULA>
C9H11F2N3O4

> <MOLECULAR_WEIGHT>
263.1981

> <EXACT_MASS>
263.071762265

> <IUPAC_NAME>
4-amino-1-[(2R,4R,5R)-3,3-difluoro-4-hydroxy-5-(hydroxymethyl)oxolan-2-yl]-1,2-dihydropyrimidin-2-one

> <IUPAC_TRADITIONAL_NAME>
gemcitabine

> <INCHI_IDENTIFIER>
InChI=1S/C9H11F2N3O4/c10-9(11)6(16)4(3-15)18-7(9)14-2-1-5(12)13-8(14)17/h1-2,4,6-7,15-16H,3H2,(H2,12,13,17)/t4-,6-,7-/m1/s1

> <INCHI_KEY>
InChIKey=SDUQYLNIPVEERB-QPPQHZFASA-N

> <SMILES>
NC1=NC(=O)N(C=C1)[C@@H]1O[C@H](CO)[C@@H](O)C1(F)F

> <JCHEM_ACCEPTOR_COUNT>
6

> <JCHEM_DONOR_COUNT>
3

> <JCHEM_ACIDIC_PKA>
11.52

> <JCHEM_BASIC_PKA>
-1.3

> <JCHEM_PHYSIOLOGICAL_CHARGE>
0

> <ALOGPS_LOGP>
0.14

> <JCHEM_LOGP>
-1.5

> <ALOGPS_LOGS>
-1.1

> <JCHEM_POLARIZABILITY>
21.45

> <JCHEM_POLAR_SURFACE_AREA>
108.38

> <JCHEM_REFRACTIVITY>
53.25

> <JCHEM_ROTATABLE_BOND_COUNT>
2

> <ALOGPS_SOLUBILITY>
2.23e+01 g/l __ 

$$$$
