709
  Mrv0541 02231214572D          

 15 16  0  0  1  0            999 V2000
    2.6665   -1.4952    0.0000 S   0  0  0  0  0  0  0  0  0  0  0  0
    3.7465   -0.7106    0.0000 O   0  0  0  0  0  0  0  0  0  0  0  0
    3.6409   -2.9164    0.0000 O   0  0  0  0  0  0  0  0  0  0  0  0
    1.6500    0.5994    0.0000 O   0  0  0  0  0  0  0  0  0  0  0  0
    3.0791    0.5994    0.0000 N   0  0  0  0  0  0  0  0  0  0  0  0
    2.3645    1.8369    0.0000 N   0  0  0  0  0  0  0  0  0  0  0  0
    3.0791    3.0744    0.0000 N   0  0  0  0  0  0  0  0  0  0  0  0
    3.0791   -0.2256    0.0000 C   0  0  2  0  0  0  0  0  0  0  0  0
    2.4115   -0.7106    0.0000 C   0  0  0  0  0  0  0  0  0  0  0  0
    3.4916   -1.4952    0.0000 C   0  0  1  0  0  0  0  0  0  0  0  0
    3.9764   -2.1627    0.0000 C   0  0  0  0  0  0  0  0  0  0  0  0
    3.7935    1.0119    0.0000 C   0  0  0  0  0  0  0  0  0  0  0  0
    2.3645    1.0119    0.0000 C   0  0  0  0  0  0  0  0  0  0  0  0
    3.7935    1.8369    0.0000 C   0  0  0  0  0  0  0  0  0  0  0  0
    3.0791    2.2494    0.0000 C   0  0  0  0  0  0  0  0  0  0  0  0
  1  9  1  0  0  0  0
  1 10  1  0  0  0  0
  2  8  1  0  0  0  0
  2 10  1  0  0  0  0
  3 11  1  0  0  0  0
  4 13  2  0  0  0  0
  8  5  1  1  0  0  0
  5 12  1  0  0  0  0
  5 13  1  0  0  0  0
  6 13  1  0  0  0  0
  6 15  2  0  0  0  0
  7 15  1  0  0  0  0
  8  9  1  0  0  0  0
 10 11  1  1  0  0  0
 12 14  2  0  0  0  0
 14 15  1  0  0  0  0
M  END
> <DRUGBANK_ID>
DB00709

> <DRUG_GROUPS>
approved; investigational

> <GENERIC_NAME>
Lamivudine

> <SYNONYMS>
Lamivudin; Lamivudina; Lamivudine; Lamivudinum

> <SALTS>
3-TC; GR 109714 X

> <BRANDS>
Amilitrap; Antiheb; Avilam; Avolam; Epivir; Epivir-HBV; Flamivud; Ganvirel; Hepavir; Hepitec; Heptavir; Heptodin; Heptodine; Heptovir; Lamda; Lamibergen; Lamidac; Lamitec; Lamivir; Zeffix

> <CHEMICAL_FORMULA>
C8H11N3O3S

> <MOLECULAR_WEIGHT>
229.256

> <EXACT_MASS>
229.052111923

> <IUPAC_NAME>
4-amino-1-[(2R,5S)-2-(hydroxymethyl)-1,3-oxathiolan-5-yl]-1,2-dihydropyrimidin-2-one

> <IUPAC_TRADITIONAL_NAME>
lamivudine

> <INCHI_IDENTIFIER>
InChI=1S/C8H11N3O3S/c9-5-1-2-11(8(13)10-5)6-4-15-7(3-12)14-6/h1-2,6-7,12H,3-4H2,(H2,9,10,13)/t6-,7+/m0/s1

> <INCHI_KEY>
InChIKey=JTEGQNOMFQHVDC-NKWVEPMBSA-N

> <SMILES>
NC1=NC(=O)N(C=C1)[C@@H]1CS[C@H](CO)O1

> <JCHEM_ACCEPTOR_COUNT>
5

> <JCHEM_DONOR_COUNT>
2

> <JCHEM_ACIDIC_PKA>
14.29

> <JCHEM_BASIC_PKA>
-0.16

> <JCHEM_PHYSIOLOGICAL_CHARGE>
0

> <ALOGPS_LOGP>
-1.3

> <JCHEM_LOGP>
-1.1

> <ALOGPS_LOGS>
-1.9

> <JCHEM_POLARIZABILITY>
21.7

> <JCHEM_POLAR_SURFACE_AREA>
88.15

> <JCHEM_REFRACTIVITY>
55.16

> <JCHEM_ROTATABLE_BOND_COUNT>
2

> <ALOGPS_SOLUBILITY>
2.76e+00 g/l __ 

$$$$
