5282443
  Mrv0541 02231214402D          

 21 23  0  0  0  0            999 V2000
    2.9558    1.2375    0.0000 N   0  0  0  0  0  0  0  0  0  0  0  0
    6.5282    0.8250    0.0000 N   0  0  0  0  0  0  0  0  0  0  0  0
    2.8696    2.0580    0.0000 C   0  0  0  0  0  0  0  0  0  0  0  0
    2.2021    0.9020    0.0000 C   0  0  0  0  0  0  0  0  0  0  0  0
    1.6500    1.5151    0.0000 C   0  0  0  0  0  0  0  0  0  0  0  0
    2.0625    2.2295    0.0000 C   0  0  0  0  0  0  0  0  0  0  0  0
    3.6703    0.8250    0.0000 C   0  0  0  0  0  0  0  0  0  0  0  0
    4.3847    1.2375    0.0000 C   0  0  0  0  0  0  0  0  0  0  0  0
    5.0993    0.8250    0.0000 C   0  0  0  0  0  0  0  0  0  0  0  0
    5.0993    0.0000    0.0000 C   0  0  0  0  0  0  0  0  0  0  0  0
    5.8137    1.2375    0.0000 C   0  0  0  0  0  0  0  0  0  0  0  0
    5.8137   -0.4125    0.0000 C   0  0  0  0  0  0  0  0  0  0  0  0
    4.3847   -0.4125    0.0000 C   0  0  0  0  0  0  0  0  0  0  0  0
    5.8137    2.0625    0.0000 C   0  0  0  0  0  0  0  0  0  0  0  0
    5.0993   -1.6500    0.0000 C   0  0  0  0  0  0  0  0  0  0  0  0
    5.8137   -1.2375    0.0000 C   0  0  0  0  0  0  0  0  0  0  0  0
    4.3847   -1.2375    0.0000 C   0  0  0  0  0  0  0  0  0  0  0  0
    6.5282    2.4751    0.0000 C   0  0  0  0  0  0  0  0  0  0  0  0
    5.0993   -2.4751    0.0000 C   0  0  0  0  0  0  0  0  0  0  0  0
    7.2427    1.2375    0.0000 C   0  0  0  0  0  0  0  0  0  0  0  0
    7.2427    2.0625    0.0000 C   0  0  0  0  0  0  0  0  0  0  0  0
  1  3  1  0  0  0  0
  1  4  1  0  0  0  0
  1  7  1  0  0  0  0
  2 11  1  0  0  0  0
  2 20  2  0  0  0  0
  3  6  1  0  0  0  0
  4  5  1  0  0  0  0
  5  6  1  0  0  0  0
  7  8  1  0  0  0  0
  8  9  2  0  0  0  0
  9 10  1  0  0  0  0
  9 11  1  0  0  0  0
 10 12  2  0  0  0  0
 10 13  1  0  0  0  0
 11 14  2  0  0  0  0
 12 16  1  0  0  0  0
 13 17  2  0  0  0  0
 14 18  1  0  0  0  0
 15 16  2  0  0  0  0
 15 17  1  0  0  0  0
 15 19  1  0  0  0  0
 18 21  2  0  0  0  0
 20 21  1  0  0  0  0
M  END
> <DRUGBANK_ID>
DB00427

> <DRUG_GROUPS>
approved

> <GENERIC_NAME>
Triprolidine

> <SALTS>
Triprolidine Hydrochloride

> <BRANDS>


> <CHEMICAL_FORMULA>
C19H22N2

> <MOLECULAR_WEIGHT>
278.3914

> <EXACT_MASS>
278.178298714

> <IUPAC_NAME>
2-[(1E)-1-(4-methylphenyl)-3-(pyrrolidin-1-yl)prop-1-en-1-yl]pyridine

> <IUPAC_TRADITIONAL_NAME>
triprolidine

> <INCHI_IDENTIFIER>
InChI=1S/C19H22N2/c1-16-7-9-17(10-8-16)18(19-6-2-3-12-20-19)11-15-21-13-4-5-14-21/h2-3,6-12H,4-5,13-15H2,1H3/b18-11+

> <INCHI_KEY>
InChIKey=CBEQULMOCCWAQT-WOJGMQOQSA-N

> <SMILES>
CC1=CC=C(C=C1)C(=C/CN1CCCC1)\C1=CC=CC=N1

> <JCHEM_ACCEPTOR_COUNT>
2

> <JCHEM_DONOR_COUNT>
0

> <JCHEM_BASIC_PKA>
8.64

> <JCHEM_PHYSIOLOGICAL_CHARGE>
1

> <ALOGPS_LOGP>
4.14

> <JCHEM_LOGP>
4.05

> <ALOGPS_LOGS>
-3.7

> <JCHEM_POLARIZABILITY>
33.09

> <JCHEM_POLAR_SURFACE_AREA>
16.13

> <JCHEM_REFRACTIVITY>
98.53

> <JCHEM_ROTATABLE_BOND_COUNT>
4

> <ALOGPS_SOLUBILITY>
5.37e-02 g/l __ 

$$$$
