231
  Mrv0541 02231214322D          

 21 23  0  0  1  0            999 V2000
    2.8172   -2.3783    0.0000 Cl   0  0  0  0  0  0  0  0  0  0  0  0
    4.1516    2.3401    0.0000 O    0  0  0  0  0  0  0  0  0  0  0  0
    2.6107    2.3401    0.0000 O    0  0  0  0  0  0  0  0  0  0  0  0
    2.4543    0.9518    0.0000 N    0  0  0  0  0  0  0  0  0  0  0  0
    4.3080    0.9518    0.0000 N    0  0  0  0  0  0  0  0  0  0  0  0
    2.6378    0.1475    0.0000 C    0  0  0  0  0  0  0  0  0  0  0  0
    3.3811   -0.2105    0.0000 C    0  0  0  0  0  0  0  0  0  0  0  0
    4.1245    0.1475    0.0000 C    0  0  0  0  0  0  0  0  0  0  0  0
    3.7936    1.5968    0.0000 C    0  0  0  0  0  0  0  0  0  0  0  0
    2.9687    1.5968    0.0000 C    0  0  0  0  0  0  0  0  0  0  0  0
    4.7694   -0.3669    0.0000 C    0  0  0  0  0  0  0  0  0  0  0  0
    3.4586   -1.0663    0.0000 C    0  0  0  0  0  0  0  0  0  0  0  0
    1.9205   -0.3256    0.0000 C    0  0  0  0  0  0  0  0  0  0  0  0
    1.6500    1.1354    0.0000 C    0  0  0  0  0  0  0  0  0  0  0  0
    2.7523   -1.5559    0.0000 C    0  0  0  0  0  0  0  0  0  0  0  0
    1.9781   -1.1830    0.0000 C    0  0  0  0  0  0  0  0  0  0  0  0
    5.5374   -0.0655    0.0000 C    0  0  0  0  0  0  0  0  0  0  0  0
    4.6465   -1.1827    0.0000 C    0  0  0  0  0  0  0  0  0  0  0  0
    6.1824   -0.5799    0.0000 C    0  0  0  0  0  0  0  0  0  0  0  0
    5.2915   -1.6971    0.0000 C    0  0  0  0  0  0  0  0  0  0  0  0
    6.0595   -1.3956    0.0000 C    0  0  0  0  0  0  0  0  0  0  0  0
  1 15  1  0  0  0  0
  2  9  1  0  0  0  0
  3 10  2  0  0  0  0
  4  6  1  0  0  0  0
  4 10  1  0  0  0  0
  4 14  1  0  0  0  0
  5  8  2  0  0  0  0
  5  9  1  0  0  0  0
  6  7  2  0  0  0  0
  6 13  1  0  0  0  0
  7  8  1  0  0  0  0
  7 12  1  0  0  0  0
  8 11  1  0  0  0  0
  9 10  1  0  0  0  0
 11 17  2  0  0  0  0
 11 18  1  0  0  0  0
 12 15  2  0  0  0  0
 13 16  2  0  0  0  0
 15 16  1  0  0  0  0
 17 19  1  0  0  0  0
 18 20  2  0  0  0  0
 19 21  2  0  0  0  0
 20 21  1  0  0  0  0
M  END
> <DRUGBANK_ID>
DB00231

> <DRUG_GROUPS>
approved

> <GENERIC_NAME>
Temazepam

> <BRANDS>
Euhypnos; Norkotral; Normison; Nortem; Remestan; Restoril; Temaze; Temtabs

> <CHEMICAL_FORMULA>
C16H13ClN2O2

> <MOLECULAR_WEIGHT>
300.74

> <EXACT_MASS>
300.066555377

> <IUPAC_NAME>
7-chloro-3-hydroxy-1-methyl-5-phenyl-2,3-dihydro-1H-1,4-benzodiazepin-2-one

> <IUPAC_TRADITIONAL_NAME>
temazepam

> <INCHI_IDENTIFIER>
InChI=1S/C16H13ClN2O2/c1-19-13-8-7-11(17)9-12(13)14(18-15(20)16(19)21)10-5-3-2-4-6-10/h2-9,15,20H,1H3

> <INCHI_KEY>
InChIKey=SEQDDYPDSLOBDC-UHFFFAOYSA-N

> <SMILES>
CN1C2=C(C=C(Cl)C=C2)C(=NC(O)C1=O)C1=CC=CC=C1

> <JCHEM_ACCEPTOR_COUNT>
3

> <JCHEM_DONOR_COUNT>
1

> <JCHEM_ACIDIC_PKA>
10.68

> <JCHEM_BASIC_PKA>
-1.4

> <JCHEM_PHYSIOLOGICAL_CHARGE>
0

> <ALOGPS_LOGP>
2.16

> <JCHEM_LOGP>
2.79

> <ALOGPS_LOGS>
-3.8

> <JCHEM_POLARIZABILITY>
30.32

> <JCHEM_POLAR_SURFACE_AREA>
52.9

> <JCHEM_REFRACTIVITY>
81.01

> <JCHEM_ROTATABLE_BOND_COUNT>
1

> <ALOGPS_SOLUBILITY>
5.34e-02 g/l __ 

$$$$
