776
  Mrv0541 02231214592D          

 19 21  0  0  0  0            999 V2000
    3.1279    2.0639    0.0000 O   0  0  0  0  0  0  0  0  0  0  0  0
    3.1816   -1.5728    0.0000 O   0  0  0  0  0  0  0  0  0  0  0  0
    3.8676   -0.3848    0.0000 N   0  0  0  0  0  0  0  0  0  0  0  0
    4.5535   -1.5728    0.0000 N   0  0  0  0  0  0  0  0  0  0  0  0
    4.7574    0.7311    0.0000 C   0  0  0  0  0  0  0  0  0  0  0  0
    4.5812   -0.0411    0.0000 C   0  0  0  0  0  0  0  0  0  0  0  0
    4.2636    1.3503    0.0000 C   0  0  0  0  0  0  0  0  0  0  0  0
    3.1539   -0.0411    0.0000 C   0  0  0  0  0  0  0  0  0  0  0  0
    2.9777    0.7311    0.0000 C   0  0  0  0  0  0  0  0  0  0  0  0
    3.4715    1.3503    0.0000 C   0  0  0  0  0  0  0  0  0  0  0  0
    5.5419    0.9863    0.0000 C   0  0  0  0  0  0  0  0  0  0  0  0
    5.1772   -0.6115    0.0000 C   0  0  0  0  0  0  0  0  0  0  0  0
    2.5579   -0.6115    0.0000 C   0  0  0  0  0  0  0  0  0  0  0  0
    2.1932    0.9864    0.0000 C   0  0  0  0  0  0  0  0  0  0  0  0
    3.8676   -1.1768    0.0000 C   0  0  0  0  0  0  0  0  0  0  0  0
    6.1510    0.4298    0.0000 C   0  0  0  0  0  0  0  0  0  0  0  0
    5.9674   -0.3745    0.0000 C   0  0  0  0  0  0  0  0  0  0  0  0
    1.7677   -0.3744    0.0000 C   0  0  0  0  0  0  0  0  0  0  0  0
    1.5841    0.4299    0.0000 C   0  0  0  0  0  0  0  0  0  0  0  0
  1 10  2  0  0  0  0
  2 15  2  0  0  0  0
  3  6  1  0  0  0  0
  3  8  1  0  0  0  0
  3 15  1  0  0  0  0
  4 15  1  0  0  0  0
  5  6  1  0  0  0  0
  5  7  1  0  0  0  0
  5 11  2  0  0  0  0
  6 12  2  0  0  0  0
  7 10  1  0  0  0  0
  8  9  1  0  0  0  0
  8 13  2  0  0  0  0
  9 10  1  0  0  0  0
  9 14  2  0  0  0  0
 11 16  1  0  0  0  0
 12 17  1  0  0  0  0
 13 18  1  0  0  0  0
 14 19  1  0  0  0  0
 16 17  2  0  0  0  0
 18 19  2  0  0  0  0
M  END
> <DRUGBANK_ID>
DB00776

> <DRUG_GROUPS>
approved

> <GENERIC_NAME>
Oxcarbazepine

> <SYNONYMS>
OCBZ; Oxcarbamazepine

> <BRANDS>
Actinium ; Barzepin; Carbox; Deprectal; Lonazet; Oxalepsy; Oxetol; Oxpin; Oxrate; Oxtellar XR ; Oxypine ; Pharozepine; Prolepsi; Timox ; Trexapin; Trileptal; Trileptin 

> <CHEMICAL_FORMULA>
C15H12N2O2

> <MOLECULAR_WEIGHT>
252.268

> <EXACT_MASS>
252.089877638

> <IUPAC_NAME>
9-oxo-2-azatricyclo[9.4.0.0^{3,8}]pentadeca-1(11),3(8),4,6,12,14-hexaene-2-carboxamide

> <IUPAC_TRADITIONAL_NAME>
9-oxo-2-azatricyclo[9.4.0.0^{3,8}]pentadeca-1(11),3(8),4,6,12,14-hexaene-2-carboxamide

> <INCHI_IDENTIFIER>
InChI=1S/C15H12N2O2/c16-15(19)17-12-7-3-1-5-10(12)9-14(18)11-6-2-4-8-13(11)17/h1-8H,9H2,(H2,16,19)

> <INCHI_KEY>
InChIKey=CTRLABGOLIVAIY-UHFFFAOYSA-N

> <SMILES>
NC(=O)N1C2=CC=CC=C2CC(=O)C2=CC=CC=C12

> <JCHEM_ACCEPTOR_COUNT>
2

> <JCHEM_DONOR_COUNT>
1

> <JCHEM_ACIDIC_PKA>
12.92

> <JCHEM_BASIC_PKA>
-4.3

> <JCHEM_PHYSIOLOGICAL_CHARGE>
0

> <ALOGPS_LOGP>
1.76

> <JCHEM_LOGP>
1.82

> <ALOGPS_LOGS>
-3.2

> <JCHEM_POLARIZABILITY>
25.72

> <JCHEM_POLAR_SURFACE_AREA>
63.4

> <JCHEM_REFRACTIVITY>
71.56

> <JCHEM_ROTATABLE_BOND_COUNT>
0

> <ALOGPS_SOLUBILITY>
1.60e-01 g/l __ 

$$$$
