206
  Mrv0541 02231214312D          

 47 52  0  0  1  0            999 V2000
    9.0369   -1.7075    0.0000 O   0  0  0  0  0  0  0  0  0  0  0  0
   10.1915   -0.4251    0.0000 O   0  0  0  0  0  0  0  0  0  0  0  0
    7.5976   -2.1233    0.0000 O   0  0  0  0  0  0  0  0  0  0  0  0
    6.5468   -1.1549    0.0000 O   0  0  0  0  0  0  0  0  0  0  0  0
   10.4832    0.9737    0.0000 O   0  0  0  0  0  0  0  0  0  0  0  0
    2.2049    1.5700    0.0000 O   0  0  0  0  0  0  0  0  0  0  0  0
   12.8723   -1.7140    0.0000 O   0  0  0  0  0  0  0  0  0  0  0  0
   13.4557    1.0837    0.0000 O   0  0  0  0  0  0  0  0  0  0  0  0
   13.9716   -0.4836    0.0000 O   0  0  0  0  0  0  0  0  0  0  0  0
    7.1074    1.7459    0.0000 N   0  0  0  0  0  0  0  0  0  0  0  0
    5.0836    0.8240    0.0000 N   0  0  0  0  0  0  0  0  0  0  0  0
    7.6474    0.1264    0.0000 C   0  0  2  0  0  0  0  0  0  0  0  0
    8.2224    0.7650    0.0000 C   0  0  1  0  0  0  0  0  0  0  0  0
    6.8083    0.3115    0.0000 C   0  0  0  0  0  0  0  0  0  0  0  0
    7.9109   -0.7290    0.0000 C   0  0  1  0  0  0  0  0  0  0  0  0
    6.5553    1.1328    0.0000 C   0  0  2  0  0  0  0  0  0  0  0  0
    7.9505    1.5802    0.0000 C   0  0  0  0  0  0  0  0  0  0  0  0
    9.1007    0.5924    0.0000 C   0  0  0  0  0  0  0  0  0  0  0  0
    8.7849   -0.9219    0.0000 C   0  0  2  0  0  0  0  0  0  0  0  0
    9.3839   -0.2567    0.0000 C   0  0  2  0  0  0  0  0  0  0  0  0
    5.7484    1.3043    0.0000 C   0  0  0  0  0  0  0  0  0  0  0  0
    6.8524    2.5305    0.0000 C   0  0  0  0  0  0  0  0  0  0  0  0
    5.4935    2.0889    0.0000 C   0  0  0  0  0  0  0  0  0  0  0  0
    6.0455    2.7020    0.0000 C   0  0  0  0  0  0  0  0  0  0  0  0
    7.3518   -1.3357    0.0000 C   0  0  0  0  0  0  0  0  0  0  0  0
    4.6734    2.0868    0.0000 C   0  0  0  0  0  0  0  0  0  0  0  0
    4.4206    1.3066    0.0000 C   0  0  0  0  0  0  0  0  0  0  0  0
    9.8431   -1.8821    0.0000 C   0  0  0  0  0  0  0  0  0  0  0  0
    4.1111    2.7299    0.0000 C   0  0  0  0  0  0  0  0  0  0  0  0
   10.7411    0.1901    0.0000 C   0  0  0  0  0  0  0  0  0  0  0  0
    3.5880    1.1155    0.0000 C   0  0  0  0  0  0  0  0  0  0  0  0
    3.2743    2.5580    0.0000 C   0  0  0  0  0  0  0  0  0  0  0  0
    3.0110    1.7453    0.0000 C   0  0  0  0  0  0  0  0  0  0  0  0
    7.0385   -2.7299    0.0000 C   0  0  0  0  0  0  0  0  0  0  0  0
   11.5488    0.0217    0.0000 C   0  0  0  0  0  0  0  0  0  0  0  0
   12.0984    0.6369    0.0000 C   0  0  0  0  0  0  0  0  0  0  0  0
   11.8067   -0.7620    0.0000 C   0  0  0  0  0  0  0  0  0  0  0  0
   12.6143   -0.9303    0.0000 C   0  0  0  0  0  0  0  0  0  0  0  0
   12.9060    0.4684    0.0000 C   0  0  0  0  0  0  0  0  0  0  0  0
    1.6500    2.1805    0.0000 C   0  0  0  0  0  0  0  0  0  0  0  0
   13.1639   -0.3151    0.0000 C   0  0  0  0  0  0  0  0  0  0  0  0
   12.3226   -2.3292    0.0000 C   0  0  0  0  0  0  0  0  0  0  0  0
   13.1977    1.8673    0.0000 C   0  0  0  0  0  0  0  0  0  0  0  0
   14.5212    0.1317    0.0000 C   0  0  0  0  0  0  0  0  0  0  0  0
    7.2001   -0.3590    0.0000 H   0  0  0  0  0  0  0  0  0  0  0  0
    8.6583    1.2606    0.0000 H   0  0  0  0  0  0  0  0  0  0  0  0
    6.1100    0.6457    0.0000 H   0  0  0  0  0  0  0  0  0  0  0  0
 19  1  1  6  0  0  0
  1 28  1  0  0  0  0
 20  2  1  1  0  0  0
  2 30  1  0  0  0  0
  3 25  1  0  0  0  0
  3 34  1  0  0  0  0
  4 25  2  0  0  0  0
  5 30  2  0  0  0  0
  6 33  1  0  0  0  0
  6 40  1  0  0  0  0
  7 38  1  0  0  0  0
  7 42  1  0  0  0  0
  8 39  1  0  0  0  0
  8 43  1  0  0  0  0
  9 41  1  0  0  0  0
  9 44  1  0  0  0  0
 10 16  1  0  0  0  0
 10 17  1  0  0  0  0
 10 22  1  0  0  0  0
 11 21  1  0  0  0  0
 11 27  1  0  0  0  0
 12 13  1  0  0  0  0
 12 14  1  0  0  0  0
 12 15  1  0  0  0  0
 12 45  1  6  0  0  0
 13 17  1  0  0  0  0
 13 18  1  0  0  0  0
 13 46  1  6  0  0  0
 14 16  1  0  0  0  0
 15 19  1  0  0  0  0
 15 25  1  1  0  0  0
 16 21  1  0  0  0  0
 16 47  1  1  0  0  0
 18 20  1  0  0  0  0
 19 20  1  0  0  0  0
 21 23  2  0  0  0  0
 22 24  1  0  0  0  0
 23 24  1  0  0  0  0
 23 26  1  0  0  0  0
 26 27  2  0  0  0  0
 26 29  1  0  0  0  0
 27 31  1  0  0  0  0
 29 32  2  0  0  0  0
 30 35  1  0  0  0  0
 31 33  2  0  0  0  0
 32 33  1  0  0  0  0
 35 36  2  0  0  0  0
 35 37  1  0  0  0  0
 36 39  1  0  0  0  0
 37 38  2  0  0  0  0
 38 41  1  0  0  0  0
 39 41  2  0  0  0  0
M  END
> <DRUGBANK_ID>
DB00206

> <DRUG_GROUPS>
approved

> <GENERIC_NAME>
Reserpine

> <SYNONYMS>
(âˆ’)-reserpine; 3,4,5-trimethoxybenzoyl methyl reserpate

> <BRANDS>
Apoplon; Hiserpia; Novoreserpine; Reserfia; Serpalan; Serpanray; Serpasil

> <CHEMICAL_FORMULA>
C33H40N2O9

> <MOLECULAR_WEIGHT>
608.6787

> <EXACT_MASS>
608.273380888

> <IUPAC_NAME>
methyl (1R,15S,17R,18R,19S,20S)-6,18-dimethoxy-17-[(3,4,5-trimethoxyphenyl)carbonyloxy]-3,13-diazapentacyclo[11.8.0.0^{2,10}.0^{4,9}.0^{15,20}]henicosa-2(10),4,6,8-tetraene-19-carboxylate

> <IUPAC_TRADITIONAL_NAME>
reserpine

> <INCHI_IDENTIFIER>
InChI=1S/C33H40N2O9/c1-38-19-7-8-20-21-9-10-35-16-18-13-27(44-32(36)17-11-25(39-2)30(41-4)26(12-17)40-3)31(42-5)28(33(37)43-6)22(18)15-24(35)29(21)34-23(20)14-19/h7-8,11-12,14,18,22,24,27-28,31,34H,9-10,13,15-16H2,1-6H3/t18-,22+,24-,27-,28+,31+/m1/s1

> <INCHI_KEY>
InChIKey=QEVHRUUCFGRFIF-MDEJGZGSSA-N

> <SMILES>
[H][C@]12C[C@@H](OC(=O)C3=CC(OC)=C(OC)C(OC)=C3)[C@H](OC)[C@@H](C(=O)OC)[C@@]1([H])C[C@@]1([H])N(CCC3=C1NC1=C3C=CC(OC)=C1)C2

> <JCHEM_ACCEPTOR_COUNT>
8

> <JCHEM_DONOR_COUNT>
1

> <JCHEM_ACIDIC_PKA>
16.29

> <JCHEM_BASIC_PKA>
7.56

> <JCHEM_PHYSIOLOGICAL_CHARGE>
1

> <ALOGPS_LOGP>
4.05

> <JCHEM_LOGP>
3.53

> <ALOGPS_LOGS>
-4.7

> <JCHEM_POLARIZABILITY>
66.05

> <JCHEM_POLAR_SURFACE_AREA>
117.78

> <JCHEM_REFRACTIVITY>
161.42

> <JCHEM_ROTATABLE_BOND_COUNT>
10

> <ALOGPS_SOLUBILITY>
1.13e-02 g/l __ 

$$$$
