181
  Mrv0541 02231214302D          

 14 14  0  0  1  0            999 V2000
    3.5220   -2.7308    0.0000 Cl   0  0  0  0  0  0  0  0  0  0  0  0
    4.9509    2.2193    0.0000 O    0  0  0  0  0  0  0  0  0  0  0  0
    3.5220    2.2193    0.0000 O    0  0  0  0  0  0  0  0  0  0  0  0
    2.0930    0.5693    0.0000 N    0  0  0  0  0  0  0  0  0  0  0  0
    3.5220    0.5693    0.0000 C    0  0  0  0  0  0  0  0  0  0  0  0
    3.5220   -0.2558    0.0000 C    0  0  0  0  0  0  0  0  0  0  0  0
    4.2365    0.9818    0.0000 C    0  0  0  0  0  0  0  0  0  0  0  0
    2.8075    0.9818    0.0000 C    0  0  0  0  0  0  0  0  0  0  0  0
    4.2365   -0.6683    0.0000 C    0  0  0  0  0  0  0  0  0  0  0  0
    2.8075   -0.6683    0.0000 C    0  0  0  0  0  0  0  0  0  0  0  0
    4.2365    1.8068    0.0000 C    0  0  0  0  0  0  0  0  0  0  0  0
    4.2365   -1.4933    0.0000 C    0  0  0  0  0  0  0  0  0  0  0  0
    2.8075   -1.4933    0.0000 C    0  0  0  0  0  0  0  0  0  0  0  0
    3.5220   -1.9058    0.0000 C    0  0  0  0  0  0  0  0  0  0  0  0
  1 14  1  0  0  0  0
  2 11  1  0  0  0  0
  3 11  2  0  0  0  0
  4  8  1  0  0  0  0
  5  6  1  0  0  0  0
  5  7  1  0  0  0  0
  5  8  1  0  0  0  0
  6  9  2  0  0  0  0
  6 10  1  0  0  0  0
  7 11  1  0  0  0  0
  9 12  1  0  0  0  0
 10 13  2  0  0  0  0
 12 14  2  0  0  0  0
 13 14  1  0  0  0  0
M  END
> <DRUGBANK_ID>
DB00181

> <DRUG_GROUPS>
approved

> <GENERIC_NAME>
Baclofen

> <BRANDS>
Baclon; Kemstro; Lioresal; Lioresal Intrathecal; Nu-Baclofen; Pms-Baclofen

> <CHEMICAL_FORMULA>
C10H12ClNO2

> <MOLECULAR_WEIGHT>
213.661

> <EXACT_MASS>
213.05565634

> <IUPAC_NAME>
4-amino-3-(4-chlorophenyl)butanoic acid

> <IUPAC_TRADITIONAL_NAME>
(+-)-baclofen

> <INCHI_IDENTIFIER>
InChI=1S/C10H12ClNO2/c11-9-3-1-7(2-4-9)8(6-12)5-10(13)14/h1-4,8H,5-6,12H2,(H,13,14)

> <INCHI_KEY>
InChIKey=KPYSYYIEGFHWSV-UHFFFAOYSA-N

> <SMILES>
NCC(CC(O)=O)C1=CC=C(Cl)C=C1

> <JCHEM_ACCEPTOR_COUNT>
3

> <JCHEM_DONOR_COUNT>
2

> <JCHEM_ACIDIC_PKA>
3.89

> <JCHEM_BASIC_PKA>
9.79

> <JCHEM_PHYSIOLOGICAL_CHARGE>
0

> <ALOGPS_LOGP>
-0.82

> <JCHEM_LOGP>
-0.78

> <ALOGPS_LOGS>
-2.5

> <JCHEM_POLARIZABILITY>
21.13

> <JCHEM_POLAR_SURFACE_AREA>
63.32

> <JCHEM_REFRACTIVITY>
54.83

> <JCHEM_ROTATABLE_BOND_COUNT>
4

> <ALOGPS_SOLUBILITY>
7.12e-01 g/l __ 

$$$$
