810
  Mrv0541 02231215012D          

 23 26  0  0  1  0            999 V2000
    6.1299    0.0101    0.0000 O   0  0  0  0  0  0  0  0  0  0  0  0
    3.2719   -0.8149    0.0000 N   0  0  0  0  0  0  0  0  0  0  0  0
    5.0029    0.3122    0.0000 C   0  0  0  0  0  0  0  0  0  0  0  0
    3.4916    0.9382    0.0000 C   0  0  0  0  0  0  0  0  0  0  0  0
    3.7051    1.7351    0.0000 C   0  0  0  0  0  0  0  0  0  0  0  0
    5.2164    1.1091    0.0000 C   0  0  0  0  0  0  0  0  0  0  0  0
    3.0974    2.5458    0.0000 C   0  0  0  0  0  0  0  0  0  0  0  0
    5.4154   -0.4024    0.0000 C   0  0  0  0  0  0  0  0  0  0  0  0
    2.0625    0.1132    0.0000 C   0  0  0  0  0  0  0  0  0  0  0  0
    1.6500    0.8277    0.0000 C   0  0  0  0  0  0  0  0  0  0  0  0
    4.7010   -0.8149    0.0000 C   0  0  0  0  0  0  0  0  0  0  0  0
    5.8279   -1.1168    0.0000 C   0  0  0  0  0  0  0  0  0  0  0  0
    3.9865   -0.4024    0.0000 C   0  0  0  0  0  0  0  0  0  0  0  0
    6.6529   -1.1168    0.0000 C   0  0  0  0  0  0  0  0  0  0  0  0
    5.4154   -1.8313    0.0000 C   0  0  0  0  0  0  0  0  0  0  0  0
    2.5575   -0.4024    0.0000 C   0  0  0  0  0  0  0  0  0  0  0  0
    3.2719   -1.6399    0.0000 C   0  0  0  0  0  0  0  0  0  0  0  0
    1.8430   -0.8149    0.0000 C   0  0  0  0  0  0  0  0  0  0  0  0
    2.5575   -2.0524    0.0000 C   0  0  0  0  0  0  0  0  0  0  0  0
    1.8430   -1.6399    0.0000 C   0  0  0  0  0  0  0  0  0  0  0  0
    7.0655   -1.8313    0.0000 C   0  0  0  0  0  0  0  0  0  0  0  0
    5.8279   -2.5458    0.0000 C   0  0  0  0  0  0  0  0  0  0  0  0
    6.6529   -2.5458    0.0000 C   0  0  0  0  0  0  0  0  0  0  0  0
  1  8  1  0  0  0  0
  2 13  1  0  0  0  0
  2 16  1  0  0  0  0
  2 17  1  0  0  0  0
  3  4  1  0  0  0  0
  3  6  1  0  0  0  0
  3  8  1  0  0  0  0
  4  7  1  0  0  0  0
  4  9  1  0  0  0  0
  5  6  1  0  0  0  0
  5  7  1  0  0  0  0
  5 10  1  0  0  0  0
  8 11  1  0  0  0  0
  8 12  1  0  0  0  0
  9 10  2  0  0  0  0
 11 13  1  0  0  0  0
 12 14  2  0  0  0  0
 12 15  1  0  0  0  0
 14 21  1  0  0  0  0
 15 22  2  0  0  0  0
 16 18  1  0  0  0  0
 17 19  1  0  0  0  0
 18 20  1  0  0  0  0
 19 20  1  0  0  0  0
 21 23  2  0  0  0  0
 22 23  1  0  0  0  0
M  END
> <DRUGBANK_ID>
DB00810

> <DRUG_GROUPS>
approved

> <GENERIC_NAME>
Biperiden

> <SYNONYMS>
Biperidene; Biperideno; Biperidenum

> <SALTS>
Biperiden Hydrochloride

> <BRANDS>
Akineton

> <CHEMICAL_FORMULA>
C21H29NO

> <MOLECULAR_WEIGHT>
311.4611

> <EXACT_MASS>
311.224914555

> <IUPAC_NAME>
1-{bicyclo[2.2.1]hept-5-en-2-yl}-1-phenyl-3-(piperidin-1-yl)propan-1-ol

> <IUPAC_TRADITIONAL_NAME>
biperiden

> <INCHI_IDENTIFIER>
InChI=1S/C21H29NO/c23-21(19-7-3-1-4-8-19,11-14-22-12-5-2-6-13-22)20-16-17-9-10-18(20)15-17/h1,3-4,7-10,17-18,20,23H,2,5-6,11-16H2

> <INCHI_KEY>
InChIKey=YSXKPIUOCJLQIE-UHFFFAOYSA-N

> <SMILES>
OC(CCN1CCCCC1)(C1CC2CC1C=C2)C1=CC=CC=C1

> <JCHEM_ACCEPTOR_COUNT>
2

> <JCHEM_DONOR_COUNT>
1

> <JCHEM_ACIDIC_PKA>
13.82

> <JCHEM_BASIC_PKA>
9.3

> <JCHEM_PHYSIOLOGICAL_CHARGE>
1

> <ALOGPS_LOGP>
4.28

> <JCHEM_LOGP>
3.54

> <ALOGPS_LOGS>
-4.9

> <JCHEM_POLARIZABILITY>
36.74

> <JCHEM_POLAR_SURFACE_AREA>
23.47

> <JCHEM_REFRACTIVITY>
97.02

> <JCHEM_ROTATABLE_BOND_COUNT>
5

> <ALOGPS_SOLUBILITY>
4.26e-03 g/l __ 

$$$$
