867
  Mrv0541 02231215042D          

 21 22  0  0  1  0            999 V2000
    1.6500   -0.1279    0.0000 O   0  0  0  0  0  0  0  0  0  0  0  0
    2.3645   -3.8405    0.0000 O   0  0  0  0  0  0  0  0  0  0  0  0
    6.6515    3.5847    0.0000 O   0  0  0  0  0  0  0  0  0  0  0  0
    3.0791    0.6971    0.0000 N   0  0  0  0  0  0  0  0  0  0  0  0
    3.0791   -0.1279    0.0000 C   0  0  2  0  0  0  0  0  0  0  0  0
    2.3645   -0.5404    0.0000 C   0  0  1  0  0  0  0  0  0  0  0  0
    3.7935    1.1096    0.0000 C   0  0  0  0  0  0  0  0  0  0  0  0
    3.7935   -0.5404    0.0000 C   0  0  0  0  0  0  0  0  0  0  0  0
    2.3645   -1.3654    0.0000 C   0  0  0  0  0  0  0  0  0  0  0  0
    3.7935    1.9347    0.0000 C   0  0  0  0  0  0  0  0  0  0  0  0
    4.5080    2.3472    0.0000 C   0  0  0  0  0  0  0  0  0  0  0  0
    3.0791   -1.7779    0.0000 C   0  0  0  0  0  0  0  0  0  0  0  0
    1.6500   -1.7779    0.0000 C   0  0  0  0  0  0  0  0  0  0  0  0
    4.5080    3.1722    0.0000 C   0  0  0  0  0  0  0  0  0  0  0  0
    5.2224    1.9347    0.0000 C   0  0  0  0  0  0  0  0  0  0  0  0
    3.0791   -2.6029    0.0000 C   0  0  0  0  0  0  0  0  0  0  0  0
    1.6500   -2.6029    0.0000 C   0  0  0  0  0  0  0  0  0  0  0  0
    2.3645   -3.0154    0.0000 C   0  0  0  0  0  0  0  0  0  0  0  0
    5.2224    3.5847    0.0000 C   0  0  0  0  0  0  0  0  0  0  0  0
    5.9370    2.3472    0.0000 C   0  0  0  0  0  0  0  0  0  0  0  0
    5.9370    3.1722    0.0000 C   0  0  0  0  0  0  0  0  0  0  0  0
  6  1  1  1  0  0  0
  2 18  1  0  0  0  0
  3 21  1  0  0  0  0
  5  4  1  1  0  0  0
  4  7  1  0  0  0  0
  5  6  1  0  0  0  0
  5  8  1  0  0  0  0
  6  9  1  0  0  0  0
  7 10  1  0  0  0  0
  9 12  2  0  0  0  0
  9 13  1  0  0  0  0
 10 11  1  0  0  0  0
 11 14  2  0  0  0  0
 11 15  1  0  0  0  0
 12 16  1  0  0  0  0
 13 17  2  0  0  0  0
 14 19  1  0  0  0  0
 15 20  2  0  0  0  0
 16 18  2  0  0  0  0
 17 18  1  0  0  0  0
 19 21  2  0  0  0  0
 20 21  1  0  0  0  0
M  END
> <DRUGBANK_ID>
DB00867

> <DRUG_GROUPS>
approved

> <GENERIC_NAME>
Ritodrine

> <SYNONYMS>
Ritodrina; Ritodrinium

> <SALTS>
Ritodrine Hydrochloride

> <BRANDS>
Yutopar

> <CHEMICAL_FORMULA>
C17H21NO3

> <MOLECULAR_WEIGHT>
287.3535

> <EXACT_MASS>
287.152143543

> <IUPAC_NAME>
4-[(1R,2S)-1-hydroxy-2-{[2-(4-hydroxyphenyl)ethyl]amino}propyl]phenol

> <IUPAC_TRADITIONAL_NAME>
ritodrine

> <INCHI_IDENTIFIER>
InChI=1S/C17H21NO3/c1-12(17(21)14-4-8-16(20)9-5-14)18-11-10-13-2-6-15(19)7-3-13/h2-9,12,17-21H,10-11H2,1H3/t12-,17-/m0/s1

> <INCHI_KEY>
InChIKey=IOVGROKTTNBUGK-SJCJKPOMSA-N

> <SMILES>
C[C@H](NCCC1=CC=C(O)C=C1)[C@H](O)C1=CC=C(O)C=C1

> <JCHEM_ACCEPTOR_COUNT>
4

> <JCHEM_DONOR_COUNT>
4

> <JCHEM_ACIDIC_PKA>
9.15

> <JCHEM_BASIC_PKA>
9.81

> <JCHEM_PHYSIOLOGICAL_CHARGE>
1

> <ALOGPS_LOGP>
1.53

> <JCHEM_LOGP>
1.82

> <ALOGPS_LOGS>
-3.2

> <JCHEM_POLARIZABILITY>
31.56

> <JCHEM_POLAR_SURFACE_AREA>
72.72

> <JCHEM_REFRACTIVITY>
83.02

> <JCHEM_ROTATABLE_BOND_COUNT>
6

> <ALOGPS_SOLUBILITY>
1.79e-01 g/l __ 

$$$$
