723
  Mrv0541 02231214572D          

 15 15  0  0  1  0            999 V2000
    3.0791    1.3159    0.0000 O   0  0  0  0  0  0  0  0  0  0  0  0
    2.3645    0.0784    0.0000 O   0  0  0  0  0  0  0  0  0  0  0  0
    5.2224   -1.5717    0.0000 O   0  0  0  0  0  0  0  0  0  0  0  0
    4.5080    2.1409    0.0000 N   0  0  0  0  0  0  0  0  0  0  0  0
    3.7935    0.9034    0.0000 C   0  0  0  0  0  0  0  0  0  0  0  0
    4.5080    1.3159    0.0000 C   0  0  0  0  0  0  0  0  0  0  0  0
    3.7935    0.0784    0.0000 C   0  0  0  0  0  0  0  0  0  0  0  0
    5.2224    0.9034    0.0000 C   0  0  0  0  0  0  0  0  0  0  0  0
    3.0791   -0.3341    0.0000 C   0  0  0  0  0  0  0  0  0  0  0  0
    4.5080   -0.3341    0.0000 C   0  0  0  0  0  0  0  0  0  0  0  0
    4.5080   -1.1592    0.0000 C   0  0  0  0  0  0  0  0  0  0  0  0
    3.0791   -1.1592    0.0000 C   0  0  0  0  0  0  0  0  0  0  0  0
    3.7935   -1.5717    0.0000 C   0  0  0  0  0  0  0  0  0  0  0  0
    1.6500   -0.3341    0.0000 C   0  0  0  0  0  0  0  0  0  0  0  0
    5.2224   -2.3967    0.0000 C   0  0  0  0  0  0  0  0  0  0  0  0
  1  5  1  0  0  0  0
  2  9  1  0  0  0  0
  2 14  1  0  0  0  0
  3 11  1  0  0  0  0
  3 15  1  0  0  0  0
  4  6  1  0  0  0  0
  5  6  1  0  0  0  0
  5  7  1  0  0  0  0
  6  8  1  0  0  0  0
  7  9  2  0  0  0  0
  7 10  1  0  0  0  0
  9 12  1  0  0  0  0
 10 11  2  0  0  0  0
 11 13  1  0  0  0  0
 12 13  2  0  0  0  0
M  END
> <DRUGBANK_ID>
DB00723

> <DRUG_GROUPS>
approved

> <GENERIC_NAME>
Methoxamine

> <SYNONYMS>
Méthoxamédrine; Methoxamin; Méthoxamine; Methoxaminum; Metoxamina

> <SALTS>
Methoxamine Hydrochloride

> <BRANDS>
Mexan; Vasoxine; Vasoxyl

> <CHEMICAL_FORMULA>
C11H17NO3

> <MOLECULAR_WEIGHT>
211.2576

> <EXACT_MASS>
211.120843415

> <IUPAC_NAME>
2-amino-1-(2,5-dimethoxyphenyl)propan-1-ol

> <IUPAC_TRADITIONAL_NAME>
methoxamine

> <INCHI_IDENTIFIER>
InChI=1S/C11H17NO3/c1-7(12)11(13)9-6-8(14-2)4-5-10(9)15-3/h4-7,11,13H,12H2,1-3H3

> <INCHI_KEY>
InChIKey=WJAJPNHVVFWKKL-UHFFFAOYSA-N

> <SMILES>
COC1=CC(C(O)C(C)N)=C(OC)C=C1

> <JCHEM_ACCEPTOR_COUNT>
4

> <JCHEM_DONOR_COUNT>
2

> <JCHEM_ACIDIC_PKA>
13.61

> <JCHEM_BASIC_PKA>
9.28

> <JCHEM_PHYSIOLOGICAL_CHARGE>
1

> <ALOGPS_LOGP>
0.41

> <JCHEM_LOGP>
0.57

> <ALOGPS_LOGS>
-1.4

> <JCHEM_POLARIZABILITY>
22.79

> <JCHEM_POLAR_SURFACE_AREA>
64.71

> <JCHEM_REFRACTIVITY>
57.84

> <JCHEM_ROTATABLE_BOND_COUNT>
4

> <ALOGPS_SOLUBILITY>
9.21e+00 g/l __ 

$$$$
