598
  Mrv0541 02231214482D          

 24 25  0  0  1  0            999 V2000
    5.6655    1.1880    0.0000 O   0  0  0  0  0  0  0  0  0  0  0  0
    2.0930    2.4256    0.0000 O   0  0  0  0  0  0  0  0  0  0  0  0
    2.8075    3.6631    0.0000 O   0  0  0  0  0  0  0  0  0  0  0  0
    5.6655   -0.4620    0.0000 N   0  0  0  0  0  0  0  0  0  0  0  0
    4.2365    3.6631    0.0000 N   0  0  0  0  0  0  0  0  0  0  0  0
    5.6655   -1.2870    0.0000 C   0  0  0  0  0  0  0  0  0  0  0  0
    6.3799   -1.6995    0.0000 C   0  0  0  0  0  0  0  0  0  0  0  0
    4.9509   -0.0495    0.0000 C   0  0  0  0  0  0  0  0  0  0  0  0
    6.3799   -2.5246    0.0000 C   0  0  0  0  0  0  0  0  0  0  0  0
    4.9509    0.7755    0.0000 C   0  0  0  0  0  0  0  0  0  0  0  0
    4.9509   -1.6995    0.0000 C   0  0  0  0  0  0  0  0  0  0  0  0
    4.2365    1.1880    0.0000 C   0  0  0  0  0  0  0  0  0  0  0  0
    7.0944   -2.9371    0.0000 C   0  0  0  0  0  0  0  0  0  0  0  0
    4.2365    2.0130    0.0000 C   0  0  0  0  0  0  0  0  0  0  0  0
    3.5220    0.7755    0.0000 C   0  0  0  0  0  0  0  0  0  0  0  0
    7.0944   -3.7621    0.0000 C   0  0  0  0  0  0  0  0  0  0  0  0
    7.8089   -2.5246    0.0000 C   0  0  0  0  0  0  0  0  0  0  0  0
    3.5220    2.4256    0.0000 C   0  0  0  0  0  0  0  0  0  0  0  0
    2.8075    1.1880    0.0000 C   0  0  0  0  0  0  0  0  0  0  0  0
    2.8075    2.0130    0.0000 C   0  0  0  0  0  0  0  0  0  0  0  0
    7.8089   -4.1746    0.0000 C   0  0  0  0  0  0  0  0  0  0  0  0
    8.5234   -2.9371    0.0000 C   0  0  0  0  0  0  0  0  0  0  0  0
    8.5234   -3.7621    0.0000 C   0  0  0  0  0  0  0  0  0  0  0  0
    3.5220    3.2506    0.0000 C   0  0  0  0  0  0  0  0  0  0  0  0
  1 10  1  0  0  0  0
  2 20  1  0  0  0  0
  3 24  2  0  0  0  0
  4  6  1  0  0  0  0
  4  8  1  0  0  0  0
  5 24  1  0  0  0  0
  6  7  1  0  0  0  0
  6 11  1  0  0  0  0
  7  9  1  0  0  0  0
  8 10  1  0  0  0  0
  9 13  1  0  0  0  0
 10 12  1  0  0  0  0
 12 14  2  0  0  0  0
 12 15  1  0  0  0  0
 13 16  2  0  0  0  0
 13 17  1  0  0  0  0
 14 18  1  0  0  0  0
 15 19  2  0  0  0  0
 16 21  1  0  0  0  0
 17 22  2  0  0  0  0
 18 20  2  0  0  0  0
 18 24  1  0  0  0  0
 19 20  1  0  0  0  0
 21 23  2  0  0  0  0
 22 23  1  0  0  0  0
M  END
> <DRUGBANK_ID>
DB00598

> <DRUG_GROUPS>
approved

> <GENERIC_NAME>
Labetalol

> <SYNONYMS>
Labetalolum; Labetolol

> <SALTS>
Labetalol Hydrochloride

> <BRANDS>
Albetol; Normodyne; Trandate

> <CHEMICAL_FORMULA>
C19H24N2O3

> <MOLECULAR_WEIGHT>
328.4055

> <EXACT_MASS>
328.178692644

> <IUPAC_NAME>
2-hydroxy-5-{1-hydroxy-2-[(4-phenylbutan-2-yl)amino]ethyl}benzamide

> <IUPAC_TRADITIONAL_NAME>
labetalol

> <INCHI_IDENTIFIER>
InChI=1S/C19H24N2O3/c1-13(7-8-14-5-3-2-4-6-14)21-12-18(23)15-9-10-17(22)16(11-15)19(20)24/h2-6,9-11,13,18,21-23H,7-8,12H2,1H3,(H2,20,24)

> <INCHI_KEY>
InChIKey=SGUAFYQXFOLMHL-UHFFFAOYSA-N

> <SMILES>
CC(CCC1=CC=CC=C1)NCC(O)C1=CC(C(N)=O)=C(O)C=C1

> <JCHEM_ACCEPTOR_COUNT>
4

> <JCHEM_DONOR_COUNT>
4

> <JCHEM_ACIDIC_PKA>
8.05

> <JCHEM_BASIC_PKA>
9.8

> <JCHEM_PHYSIOLOGICAL_CHARGE>
1

> <ALOGPS_LOGP>
1.73

> <JCHEM_LOGP>
1.89

> <ALOGPS_LOGS>
-4.8

> <JCHEM_POLARIZABILITY>
36.83

> <JCHEM_POLAR_SURFACE_AREA>
95.58

> <JCHEM_REFRACTIVITY>
94.72

> <JCHEM_ROTATABLE_BOND_COUNT>
8

> <ALOGPS_SOLUBILITY>
5.78e-03 g/l __ 

$$$$
