708
  Mrv0541 02231214562D          

 27 29  0  0  0  0            999 V2000
    3.2530   -3.1354    0.0000 S   0  0  0  0  0  0  0  0  0  0  0  0
    2.0625    1.7766    0.0000 O   0  0  0  0  0  0  0  0  0  0  0  0
    2.4751    2.4911    0.0000 O   0  0  0  0  0  0  0  0  0  0  0  0
    3.3001   -0.5879    0.0000 N   0  0  0  0  0  0  0  0  0  0  0  0
    3.7126    1.7766    0.0000 N   0  0  0  0  0  0  0  0  0  0  0  0
    3.3001    1.0621    0.0000 C   0  0  0  0  0  0  0  0  0  0  0  0
    2.5856    0.6496    0.0000 C   0  0  0  0  0  0  0  0  0  0  0  0
    4.0145    0.6496    0.0000 C   0  0  0  0  0  0  0  0  0  0  0  0
    2.5856   -0.1754    0.0000 C   0  0  0  0  0  0  0  0  0  0  0  0
    4.0145   -0.1754    0.0000 C   0  0  0  0  0  0  0  0  0  0  0  0
    2.8876    1.7766    0.0000 C   0  0  0  0  0  0  0  0  0  0  0  0
    3.3001   -1.4129    0.0000 C   0  0  0  0  0  0  0  0  0  0  0  0
    4.5376    1.7766    0.0000 C   0  0  0  0  0  0  0  0  0  0  0  0
    3.3001    2.4911    0.0000 C   0  0  0  0  0  0  0  0  0  0  0  0
    2.5856   -1.8254    0.0000 C   0  0  0  0  0  0  0  0  0  0  0  0
    3.7126    3.2055    0.0000 C   0  0  0  0  0  0  0  0  0  0  0  0
    4.9501    2.4911    0.0000 C   0  0  0  0  0  0  0  0  0  0  0  0
    4.9501    1.0621    0.0000 C   0  0  0  0  0  0  0  0  0  0  0  0
    2.5856   -2.6505    0.0000 C   0  0  0  0  0  0  0  0  0  0  0  0
    1.6500    2.4911    0.0000 C   0  0  0  0  0  0  0  0  0  0  0  0
    3.3001    3.9201    0.0000 C   0  0  0  0  0  0  0  0  0  0  0  0
    5.7751    2.4911    0.0000 C   0  0  0  0  0  0  0  0  0  0  0  0
    5.7751    1.0621    0.0000 C   0  0  0  0  0  0  0  0  0  0  0  0
    1.9182   -3.1354    0.0000 C   0  0  0  0  0  0  0  0  0  0  0  0
    6.1876    1.7766    0.0000 C   0  0  0  0  0  0  0  0  0  0  0  0
    2.1731   -3.9201    0.0000 C   0  0  0  0  0  0  0  0  0  0  0  0
    2.9981   -3.9201    0.0000 C   0  0  0  0  0  0  0  0  0  0  0  0
  1 19  1  0  0  0  0
  1 27  1  0  0  0  0
  2 11  1  0  0  0  0
  2 20  1  0  0  0  0
  3 14  2  0  0  0  0
  4  9  1  0  0  0  0
  4 10  1  0  0  0  0
  4 12  1  0  0  0  0
  5  6  1  0  0  0  0
  5 13  1  0  0  0  0
  5 14  1  0  0  0  0
  6  7  1  0  0  0  0
  6  8  1  0  0  0  0
  6 11  1  0  0  0  0
  7  9  1  0  0  0  0
  8 10  1  0  0  0  0
 12 15  1  0  0  0  0
 13 17  2  0  0  0  0
 13 18  1  0  0  0  0
 14 16  1  0  0  0  0
 15 19  1  0  0  0  0
 16 21  1  0  0  0  0
 17 22  1  0  0  0  0
 18 23  2  0  0  0  0
 19 24  2  0  0  0  0
 22 25  2  0  0  0  0
 23 25  1  0  0  0  0
 24 26  1  0  0  0  0
 26 27  2  0  0  0  0
M  END
> <DRUGBANK_ID>
DB00708

> <DRUG_GROUPS>
approved; investigational

> <GENERIC_NAME>
Sufentanil

> <SYNONYMS>
Sufentanil; Sufentanilo; Sufentanilum

> <SALTS>
Sufentanil Citrate

> <BRANDS>
Chronogesic; Disufen; Fastfen; Sufenta; Sufenta Forte; Sufenta mite; Sufentil; Zuftil

> <CHEMICAL_FORMULA>
C22H30N2O2S

> <MOLECULAR_WEIGHT>
386.551

> <EXACT_MASS>
386.202798904

> <IUPAC_NAME>
N-[4-(methoxymethyl)-1-[2-(thiophen-2-yl)ethyl]piperidin-4-yl]-N-phenylpropanamide

> <IUPAC_TRADITIONAL_NAME>
sufentanil

> <INCHI_IDENTIFIER>
InChI=1S/C22H30N2O2S/c1-3-21(25)24(19-8-5-4-6-9-19)22(18-26-2)12-15-23(16-13-22)14-11-20-10-7-17-27-20/h4-10,17H,3,11-16,18H2,1-2H3

> <INCHI_KEY>
InChIKey=GGCSSNBKKAUURC-UHFFFAOYSA-N

> <SMILES>
CCC(=O)N(C1=CC=CC=C1)C1(COC)CCN(CCC2=CC=CS2)CC1

> <JCHEM_ACCEPTOR_COUNT>
3

> <JCHEM_DONOR_COUNT>
0

> <JCHEM_BASIC_PKA>
8.86

> <JCHEM_PHYSIOLOGICAL_CHARGE>
1

> <ALOGPS_LOGP>
3.4

> <JCHEM_LOGP>
3.61

> <ALOGPS_LOGS>
-4.5

> <JCHEM_POLARIZABILITY>
43.85

> <JCHEM_POLAR_SURFACE_AREA>
32.78

> <JCHEM_REFRACTIVITY>
111.42

> <JCHEM_ROTATABLE_BOND_COUNT>
8

> <ALOGPS_SOLUBILITY>
1.20e-02 g/l __ 

$$$$
