
  Mrv0541 09241310162D          

 14 13  0  0  0  0            999 V2000
    2.5076    0.1775    0.0000 C   0  0  0  0  0  0  0  0  0  0  0  0
    1.7931   -0.2350    0.0000 C   0  0  1  0  0  0  0  0  0  0  0  0
    2.5076    1.0025    0.0000 O   0  0  0  0  0  0  0  0  0  0  0  0
    1.7931   -1.0600    0.0000 N   0  0  0  0  0  0  0  0  0  0  0  0
    0.3642   -0.2350    0.0000 S   0  0  0  0  0  0  0  0  0  0  0  0
    1.0787    0.1775    0.0000 C   0  0  0  0  0  0  0  0  0  0  0  0
    3.2221   -0.2350    0.0000 O   0  0  0  0  0  0  0  0  0  0  0  0
   -2.4937   -0.2350    0.0000 C   0  0  0  0  0  0  0  0  0  0  0  0
   -1.7792    0.1775    0.0000 C   0  0  1  0  0  0  0  0  0  0  0  0
   -2.4937   -1.0600    0.0000 O   0  0  0  0  0  0  0  0  0  0  0  0
   -1.7792    1.0025    0.0000 N   0  0  0  0  0  0  0  0  0  0  0  0
   -0.3503    0.1775    0.0000 S   0  0  0  0  0  0  0  0  0  0  0  0
   -1.0648   -0.2350    0.0000 C   0  0  0  0  0  0  0  0  0  0  0  0
   -3.2082    0.1775    0.0000 O   0  0  0  0  0  0  0  0  0  0  0  0
  1  2  1  0  0  0  0
  1  3  2  0  0  0  0
  2  4  1  1  0  0  0
  2  6  1  0  0  0  0
  5  6  1  0  0  0  0
  7  1  1  0  0  0  0
  8  9  1  0  0  0  0
  8 10  2  0  0  0  0
  9 11  1  1  0  0  0
  9 13  1  0  0  0  0
 12 13  1  0  0  0  0
 14  8  1  0  0  0  0
  5 12  1  0  0  0  0
M  END
> <DRUGBANK_ID>
DB00138

> <DRUG_GROUPS>
approved; nutraceutical

> <GENERIC_NAME>
L-Cystine

> <SYNONYMS>
(R,R)-3,3'-dithiobis(2-aminopropanoic acid); L-alpha-Diamino-beta-dithiolactic acid; L-Dicysteine; β,β'-dithiodialanine

> <CHEMICAL_FORMULA>
C6H12N2O4S2

> <MOLECULAR_WEIGHT>
240.3

> <EXACT_MASS>
240.023848262

> <IUPAC_NAME>
(2R)-2-amino-3-{[(2R)-2-amino-2-carboxyethyl]disulfanyl}propanoic acid

> <IUPAC_TRADITIONAL_NAME>
L-cystine

> <INCHI_IDENTIFIER>
InChI=1/C6H12N2O4S2/c7-3(5(9)10)1-13-14-2-4(8)6(11)12/h3-4H,1-2,7-8H2,(H,9,10)(H,11,12)/t3-,4-/s2

> <INCHI_KEY>
InChIKey=LEVWYRKDKASIDU-SEFKMRKONA-N

> <SMILES>
N[C@@H](CSSC[C@H](N)C(O)=O)C(O)=O

> <JCHEM_ACCEPTOR_COUNT>
6

> <JCHEM_DONOR_COUNT>
4

> <JCHEM_ACIDIC_PKA>
1.56

> <JCHEM_BASIC_PKA>
9.34

> <JCHEM_PHYSIOLOGICAL_CHARGE>
0

> <ALOGPS_LOGP>
-3.2

> <JCHEM_LOGP>
-5.9

> <ALOGPS_LOGS>
-1.2

> <JCHEM_POLARIZABILITY>
22.77

> <JCHEM_POLAR_SURFACE_AREA>
126.64

> <JCHEM_REFRACTIVITY>
54.87

> <JCHEM_ROTATABLE_BOND_COUNT>
7

> <ALOGPS_SOLUBILITY>
1.68e+01 g/l __ 

$$$$
