832
  Mrv0541 02231215022D          

 14 15  0  0  1  0            999 V2000
    1.6500    0.4990    0.0000 O   0  0  0  0  0  0  0  0  0  0  0  0
    3.9995    2.2060    0.0000 O   0  0  0  0  0  0  0  0  0  0  0  0
    2.6896    1.5386    0.0000 N   0  0  0  0  0  0  0  0  0  0  0  0
    3.1021    0.2690    0.0000 C   0  0  0  0  0  0  0  0  0  0  0  0
    3.7695    0.7540    0.0000 C   0  0  0  0  0  0  0  0  0  0  0  0
    2.4347    0.7540    0.0000 C   0  0  0  0  0  0  0  0  0  0  0  0
    3.1021   -0.5560    0.0000 C   0  0  0  0  0  0  0  0  0  0  0  0
    3.5146    1.5386    0.0000 C   0  0  0  0  0  0  0  0  0  0  0  0
    2.2047    2.2060    0.0000 C   0  0  0  0  0  0  0  0  0  0  0  0
    3.8166   -0.9685    0.0000 C   0  0  0  0  0  0  0  0  0  0  0  0
    2.3876   -0.9685    0.0000 C   0  0  0  0  0  0  0  0  0  0  0  0
    3.8166   -1.7935    0.0000 C   0  0  0  0  0  0  0  0  0  0  0  0
    2.3876   -1.7935    0.0000 C   0  0  0  0  0  0  0  0  0  0  0  0
    3.1021   -2.2060    0.0000 C   0  0  0  0  0  0  0  0  0  0  0  0
  1  6  2  0  0  0  0
  2  8  2  0  0  0  0
  3  6  1  0  0  0  0
  3  8  1  0  0  0  0
  3  9  1  0  0  0  0
  4  5  1  0  0  0  0
  4  6  1  0  0  0  0
  4  7  1  0  0  0  0
  5  8  1  0  0  0  0
  7 10  2  0  0  0  0
  7 11  1  0  0  0  0
 10 12  1  0  0  0  0
 11 13  2  0  0  0  0
 12 14  2  0  0  0  0
 13 14  1  0  0  0  0
M  END
> <DRUGBANK_ID>
DB00832

> <DRUG_GROUPS>
approved

> <GENERIC_NAME>
Phensuximide

> <SYNONYMS>
Fensuccimide; Fensuximida; Phensuximide; Phensuximidum

> <BRANDS>
Lifene ; Milontin; Milonton; Succitimal

> <CHEMICAL_FORMULA>
C11H11NO2

> <MOLECULAR_WEIGHT>
189.2105

> <EXACT_MASS>
189.078978601

> <IUPAC_NAME>
1-methyl-3-phenylpyrrolidine-2,5-dione

> <IUPAC_TRADITIONAL_NAME>
phensuximide

> <INCHI_IDENTIFIER>
InChI=1S/C11H11NO2/c1-12-10(13)7-9(11(12)14)8-5-3-2-4-6-8/h2-6,9H,7H2,1H3

> <INCHI_KEY>
InChIKey=WLWFNJKHKGIJNW-UHFFFAOYSA-N

> <SMILES>
CN1C(=O)CC(C1=O)C1=CC=CC=C1

> <JCHEM_ACCEPTOR_COUNT>
2

> <JCHEM_DONOR_COUNT>
0

> <JCHEM_ACIDIC_PKA>
19.4

> <JCHEM_BASIC_PKA>
-7.4

> <JCHEM_PHYSIOLOGICAL_CHARGE>
0

> <ALOGPS_LOGP>
0.61

> <JCHEM_LOGP>
0.91

> <ALOGPS_LOGS>
-1.9

> <JCHEM_POLARIZABILITY>
19.66

> <JCHEM_POLAR_SURFACE_AREA>
37.38

> <JCHEM_REFRACTIVITY>
51.85

> <JCHEM_ROTATABLE_BOND_COUNT>
1

> <ALOGPS_SOLUBILITY>
2.21e+00 g/l __ 

$$$$
