911
  Mrv0541 02231215062D          

 16 16  0  0  0  0            999 V2000
    2.4751   -1.0473    0.0000 S   0  0  0  0  0  0  0  0  0  0  0  0
    3.3001   -1.0473    0.0000 O   0  0  0  0  0  0  0  0  0  0  0  0
    1.6500   -1.0473    0.0000 O   0  0  0  0  0  0  0  0  0  0  0  0
    5.2547    1.7973    0.0000 O   0  5  0  0  0  0  0  0  0  0  0  0
    4.8132    0.4383    0.0000 O   0  0  0  0  0  0  0  0  0  0  0  0
    3.1895    1.0153    0.0000 N   0  0  0  0  0  0  0  0  0  0  0  0
    2.7770    2.2848    0.0000 N   0  0  0  0  0  0  0  0  0  0  0  0
    4.6417    1.2452    0.0000 N   0  3  0  0  0  0  0  0  0  0  0  0
    2.4751   -0.2223    0.0000 C   0  0  0  0  0  0  0  0  0  0  0  0
    3.1895    0.1903    0.0000 C   0  0  0  0  0  0  0  0  0  0  0  0
    2.4751   -1.8723    0.0000 C   0  0  0  0  0  0  0  0  0  0  0  0
    2.5221    1.5002    0.0000 C   0  0  0  0  0  0  0  0  0  0  0  0
    3.8570    1.5002    0.0000 C   0  0  0  0  0  0  0  0  0  0  0  0
    1.7606   -2.2848    0.0000 C   0  0  0  0  0  0  0  0  0  0  0  0
    3.6021    2.2848    0.0000 C   0  0  0  0  0  0  0  0  0  0  0  0
    1.7375    1.2452    0.0000 C   0  0  0  0  0  0  0  0  0  0  0  0
  1  2  2  0  0  0  0
  1  3  2  0  0  0  0
  1  9  1  0  0  0  0
  1 11  1  0  0  0  0
  4  8  1  0  0  0  0
  5  8  2  0  0  0  0
  6 10  1  0  0  0  0
  6 12  1  0  0  0  0
  6 13  1  0  0  0  0
  7 12  2  0  0  0  0
  7 15  1  0  0  0  0
  8 13  1  0  0  0  0
  9 10  1  0  0  0  0
 11 14  1  0  0  0  0
 12 16  1  0  0  0  0
 13 15  2  0  0  0  0
M  END
> <DRUGBANK_ID>
DB00911

> <DRUG_GROUPS>
approved; investigational

> <GENERIC_NAME>
Tinidazole

> <BRANDS>


> <CHEMICAL_FORMULA>
C8H13N3O4S

> <MOLECULAR_WEIGHT>
247.272

> <EXACT_MASS>
247.062676609

> <IUPAC_NAME>
1-[2-(ethanesulfonyl)ethyl]-2-methyl-5-nitro-1H-imidazole

> <IUPAC_TRADITIONAL_NAME>
tinidazole

> <INCHI_IDENTIFIER>
InChI=1S/C8H13N3O4S/c1-3-16(14,15)5-4-10-7(2)9-6-8(10)11(12)13/h6H,3-5H2,1-2H3

> <INCHI_KEY>
InChIKey=HJLSLZFTEKNLFI-UHFFFAOYSA-N

> <SMILES>
CCS(=O)(=O)CCN1C(C)=NC=C1[N+]([O-])=O

> <JCHEM_ACCEPTOR_COUNT>
5

> <JCHEM_DONOR_COUNT>
0

> <JCHEM_BASIC_PKA>
3.1

> <JCHEM_PHYSIOLOGICAL_CHARGE>
0

> <ALOGPS_LOGP>
-0.41

> <JCHEM_LOGP>
-0.58

> <ALOGPS_LOGS>
-1.9

> <JCHEM_POLARIZABILITY>
23.27

> <JCHEM_POLAR_SURFACE_AREA>
97.78

> <JCHEM_REFRACTIVITY>
57.66

> <JCHEM_ROTATABLE_BOND_COUNT>
5

> <ALOGPS_SOLUBILITY>
3.03e+00 g/l __ 

$$$$
