964
  Mrv0541 02231215082D          

 15 16  0  0  0  0            999 V2000
    1.6500    0.1653    0.0000 Cl   0  0  0  0  0  0  0  0  0  0  0  0
    4.5080    0.1653    0.0000 Cl   0  0  0  0  0  0  0  0  0  0  0  0
    3.8797    2.2233    0.0000 N    0  0  0  0  0  0  0  0  0  0  0  0
    3.0791    0.9903    0.0000 N    0  0  0  0  0  0  0  0  0  0  0  0
    4.5472    1.0672    0.0000 N    0  0  0  0  0  0  0  0  0  0  0  0
    3.0791   -2.3098    0.0000 N    0  0  0  0  0  0  0  0  0  0  0  0
    4.6868    2.3948    0.0000 C    0  0  0  0  0  0  0  0  0  0  0  0
    5.0993    1.6803    0.0000 C    0  0  0  0  0  0  0  0  0  0  0  0
    3.7935    1.4028    0.0000 C    0  0  0  0  0  0  0  0  0  0  0  0
    3.0791    0.1653    0.0000 C    0  0  0  0  0  0  0  0  0  0  0  0
    2.3645   -0.2473    0.0000 C    0  0  0  0  0  0  0  0  0  0  0  0
    3.7935   -0.2473    0.0000 C    0  0  0  0  0  0  0  0  0  0  0  0
    3.0791   -1.4848    0.0000 C    0  0  0  0  0  0  0  0  0  0  0  0
    2.3645   -1.0723    0.0000 C    0  0  0  0  0  0  0  0  0  0  0  0
    3.7935   -1.0723    0.0000 C    0  0  0  0  0  0  0  0  0  0  0  0
  1 11  1  0  0  0  0
  2 12  1  0  0  0  0
  3  7  1  0  0  0  0
  3  9  1  0  0  0  0
  4  9  1  0  0  0  0
  4 10  1  0  0  0  0
  5  8  1  0  0  0  0
  5  9  2  0  0  0  0
  6 13  1  0  0  0  0
  7  8  1  0  0  0  0
 10 11  2  0  0  0  0
 10 12  1  0  0  0  0
 11 14  1  0  0  0  0
 12 15  2  0  0  0  0
 13 14  2  0  0  0  0
 13 15  1  0  0  0  0
M  END
> <DRUGBANK_ID>
DB00964

> <DRUG_GROUPS>
approved

> <GENERIC_NAME>
Apraclonidine

> <SYNONYMS>
Apraclonidina; Apraclonidinum

> <SALTS>
Apraclonidine Hydrochloride

> <BRANDS>
Iopidine

> <CHEMICAL_FORMULA>
C9H10Cl2N4

> <MOLECULAR_WEIGHT>
245.109

> <EXACT_MASS>
244.028251754

> <IUPAC_NAME>
2,6-dichloro-1-N-(4,5-dihydro-1H-imidazol-2-yl)benzene-1,4-diamine

> <IUPAC_TRADITIONAL_NAME>
apraclonidine

> <INCHI_IDENTIFIER>
InChI=1S/C9H10Cl2N4/c10-6-3-5(12)4-7(11)8(6)15-9-13-1-2-14-9/h3-4H,1-2,12H2,(H2,13,14,15)

> <INCHI_KEY>
InChIKey=IEJXVRYNEISIKR-UHFFFAOYSA-N

> <SMILES>
NC1=CC(Cl)=C(NC2=NCCN2)C(Cl)=C1

> <JCHEM_ACCEPTOR_COUNT>
4

> <JCHEM_DONOR_COUNT>
3

> <JCHEM_BASIC_PKA>
8.48

> <JCHEM_PHYSIOLOGICAL_CHARGE>
1

> <ALOGPS_LOGP>
2.14

> <JCHEM_LOGP>
1.66

> <ALOGPS_LOGS>
-2.8

> <JCHEM_POLARIZABILITY>
23.27

> <JCHEM_POLAR_SURFACE_AREA>
62.44

> <JCHEM_REFRACTIVITY>
63.79

> <JCHEM_ROTATABLE_BOND_COUNT>
1

> <ALOGPS_SOLUBILITY>
4.09e-01 g/l __ 

$$$$
