
  Mrv0541 04191212102D          

 10 10  0  0  0  0            999 V2000
   -0.1480    0.2044    0.0000 C   0  0  0  0  0  0  0  0  0  0  0  0
   -0.1480   -0.6206    0.0000 C   0  0  0  0  0  0  0  0  0  0  0  0
   -0.8625    0.6169    0.0000 C   0  0  0  0  0  0  0  0  0  0  0  0
    0.5665    0.6169    0.0000 C   0  0  0  0  0  0  0  0  0  0  0  0
   -0.8625   -1.0331    0.0000 C   0  0  0  0  0  0  0  0  0  0  0  0
   -1.5770    0.2044    0.0000 C   0  0  0  0  0  0  0  0  0  0  0  0
    1.2809    0.2044    0.0000 C   0  0  0  0  0  0  0  0  0  0  0  0
   -1.5770   -0.6206    0.0000 C   0  0  0  0  0  0  0  0  0  0  0  0
    1.2809   -0.6206    0.0000 C   0  0  0  0  0  0  0  0  0  0  0  0
    1.9954    0.6169    0.0000 N   0  0  0  0  0  0  0  0  0  0  0  0
  1  2  1  0  0  0  0
  1  3  2  0  0  0  0
  1  4  1  0  0  0  0
  2  5  2  0  0  0  0
  3  6  1  0  0  0  0
  4  7  1  0  0  0  0
  5  8  1  0  0  0  0
  7  9  1  0  0  0  0
  7 10  1  0  0  0  0
  6  8  2  0  0  0  0
M  END
> <DRUGBANK_ID>
DB00182

> <DRUG_GROUPS>
approved; illicit

> <GENERIC_NAME>
Amphetamine

> <SYNONYMS>
1-phenyl-2-aminopropane; Amfetamine; Desoxynorephedrine; α-methylbenzeneethaneamine; α-methylphenethylamine; β-aminopropylbenzene; β-phenylisopropylamine

> <CHEMICAL_FORMULA>
C9H13N

> <MOLECULAR_WEIGHT>
135.2062

> <EXACT_MASS>
135.104799421

> <IUPAC_NAME>
1-phenylpropan-2-amine

> <IUPAC_TRADITIONAL_NAME>
amphetamine

> <INCHI_IDENTIFIER>
InChI=1S/C9H13N/c1-8(10)7-9-5-3-2-4-6-9/h2-6,8H,7,10H2,1H3

> <INCHI_KEY>
InChIKey=KWTSXDURSIMDCE-UHFFFAOYSA-N

> <SMILES>
CC(N)CC1=CC=CC=C1

> <JCHEM_ACCEPTOR_COUNT>
1

> <JCHEM_DONOR_COUNT>
1

> <JCHEM_BASIC_PKA>
10.01

> <JCHEM_PHYSIOLOGICAL_CHARGE>
1

> <ALOGPS_LOGP>
1.85

> <JCHEM_LOGP>
1.8

> <ALOGPS_LOGS>
-1.9

> <JCHEM_POLARIZABILITY>
16.17

> <JCHEM_POLAR_SURFACE_AREA>
26.02

> <JCHEM_REFRACTIVITY>
43.71

> <JCHEM_ROTATABLE_BOND_COUNT>
2

> <ALOGPS_SOLUBILITY>
1.74e+00 g/l __ 

$$$$
