343
  Mrv0541 02231214372D          

 29 31  0  0  1  0            999 V2000
    3.3901   -0.5861    0.0000 S   0  0  0  0  0  0  0  0  0  0  0  0
    5.0875    0.8022    0.0000 O   0  0  0  0  0  0  0  0  0  0  0  0
    6.0483   -0.4025    0.0000 O   0  0  0  0  0  0  0  0  0  0  0  0
    2.4727    3.0321    0.0000 O   0  0  0  0  0  0  0  0  0  0  0  0
    6.3749    0.1822    0.0000 O   0  0  0  0  0  0  0  0  0  0  0  0
    5.0603   -1.3904    0.0000 N   0  0  0  0  0  0  0  0  0  0  0  0
    7.1183   -2.1178    0.0000 N   0  0  0  0  0  0  0  0  0  0  0  0
    3.9045    0.0589    0.0000 C   0  0  2  0  0  0  0  0  0  0  0  0
    4.7295    0.0589    0.0000 C   0  0  2  0  0  0  0  0  0  0  0  0
    5.2439   -0.5861    0.0000 C   0  0  0  0  0  0  0  0  0  0  0  0
    5.7053   -1.9048    0.0000 C   0  0  0  0  0  0  0  0  0  0  0  0
    4.3170   -1.7484    0.0000 C   0  0  0  0  0  0  0  0  0  0  0  0
    3.5466    0.8022    0.0000 C   0  0  0  0  0  0  0  0  0  0  0  0
    3.5738   -1.3904    0.0000 C   0  0  0  0  0  0  0  0  0  0  0  0
    6.4733   -1.6034    0.0000 C   0  0  0  0  0  0  0  0  0  0  0  0
    4.3945   -2.6042    0.0000 C   0  0  0  0  0  0  0  0  0  0  0  0
    2.8563   -1.8635    0.0000 C   0  0  0  0  0  0  0  0  0  0  0  0
    2.7239    0.8639    0.0000 C   0  0  0  0  0  0  0  0  0  0  0  0
    4.0113    1.4839    0.0000 C   0  0  0  0  0  0  0  0  0  0  0  0
    3.6882   -3.0938    0.0000 C   0  0  0  0  0  0  0  0  0  0  0  0
    2.9139   -2.7209    0.0000 C   0  0  0  0  0  0  0  0  0  0  0  0
    2.3659    1.6072    0.0000 C   0  0  0  0  0  0  0  0  0  0  0  0
    3.6534    2.2272    0.0000 C   0  0  0  0  0  0  0  0  0  0  0  0
    7.8863   -1.8163    0.0000 C   0  0  0  0  0  0  0  0  0  0  0  0
    6.9954   -2.9336    0.0000 C   0  0  0  0  0  0  0  0  0  0  0  0
    2.8307    2.2888    0.0000 C   0  0  0  0  0  0  0  0  0  0  0  0
    5.9102    0.8639    0.0000 C   0  0  0  0  0  0  0  0  0  0  0  0
    6.2681    1.6072    0.0000 C   0  0  0  0  0  0  0  0  0  0  0  0
    1.6500    3.0938    0.0000 C   0  0  0  0  0  0  0  0  0  0  0  0
  1  8  1  0  0  0  0
  1 14  1  0  0  0  0
  9  2  1  1  0  0  0
  2 27  1  0  0  0  0
  3 10  2  0  0  0  0
  4 26  1  0  0  0  0
  4 29  1  0  0  0  0
  5 27  2  0  0  0  0
  6 10  1  0  0  0  0
  6 11  1  0  0  0  0
  6 12  1  0  0  0  0
  7 15  1  0  0  0  0
  7 24  1  0  0  0  0
  7 25  1  0  0  0  0
  8  9  1  0  0  0  0
  8 13  1  1  0  0  0
  9 10  1  0  0  0  0
 11 15  1  0  0  0  0
 12 14  1  0  0  0  0
 12 16  2  0  0  0  0
 13 18  2  0  0  0  0
 13 19  1  0  0  0  0
 14 17  2  0  0  0  0
 16 20  1  0  0  0  0
 17 21  1  0  0  0  0
 18 22  1  0  0  0  0
 19 23  2  0  0  0  0
 20 21  2  0  0  0  0
 22 26  2  0  0  0  0
 23 26  1  0  0  0  0
 27 28  1  0  0  0  0
M  END
> <DRUGBANK_ID>
DB00343

> <DRUG_GROUPS>
approved

> <GENERIC_NAME>
Diltiazem

> <SALTS>
Diltiazem hydrochloride

> <BRANDS>
Acalix; Adizem; Altiazem; Anoheal; Calcicard; Cardizem; Cartia XT; Dilacor-XR; Dilcontin; Dilrene; Diltia XT; Dilticard; Dilzem; Herbesser; Incoril AP; Masdil; Surazem; Tiazac; Viazem

> <CHEMICAL_FORMULA>
C22H26N2O4S

> <MOLECULAR_WEIGHT>
414.518

> <EXACT_MASS>
414.16132802

> <IUPAC_NAME>
(2S,3S)-5-[2-(dimethylamino)ethyl]-2-(4-methoxyphenyl)-4-oxo-2,3,4,5-tetrahydro-1,5-benzothiazepin-3-yl acetate

> <IUPAC_TRADITIONAL_NAME>
diltiazem

> <INCHI_IDENTIFIER>
InChI=1S/C22H26N2O4S/c1-15(25)28-20-21(16-9-11-17(27-4)12-10-16)29-19-8-6-5-7-18(19)24(22(20)26)14-13-23(2)3/h5-12,20-21H,13-14H2,1-4H3/t20-,21+/m1/s1

> <INCHI_KEY>
InChIKey=HSUGRBWQSSZJOP-RTWAWAEBSA-N

> <SMILES>
COC1=CC=C(C=C1)[C@@H]1SC2=CC=CC=C2N(CCN(C)C)C(=O)[C@@H]1OC(C)=O

> <JCHEM_ACCEPTOR_COUNT>
4

> <JCHEM_DONOR_COUNT>
0

> <JCHEM_ACIDIC_PKA>
12.86

> <JCHEM_BASIC_PKA>
8.18

> <JCHEM_PHYSIOLOGICAL_CHARGE>
1

> <ALOGPS_LOGP>
3.09

> <JCHEM_LOGP>
2.73

> <ALOGPS_LOGS>
-4.4

> <JCHEM_POLARIZABILITY>
43.65

> <JCHEM_POLAR_SURFACE_AREA>
59.08

> <JCHEM_REFRACTIVITY>
114.37

> <JCHEM_ROTATABLE_BOND_COUNT>
7

> <ALOGPS_SOLUBILITY>
1.68e-02 g/l __ 

$$$$
