324
  Mrv0541 02231214362D          

 29 32  0  0  1  0            999 V2000
    4.1400    0.7077    0.0000 F   0  0  0  0  0  0  0  0  0  0  0  0
    6.6263    1.9371    0.0000 O   0  0  0  0  0  0  0  0  0  0  0  0
    3.9559    1.3132    0.0000 O   0  0  0  0  0  0  0  0  0  0  0  0
    7.4634    2.4564    0.0000 O   0  0  0  0  0  0  0  0  0  0  0  0
    1.6500   -1.6175    0.0000 O   0  0  0  0  0  0  0  0  0  0  0  0
    6.0993    0.9007    0.0000 C   0  0  1  0  0  0  0  0  0  0  0  0
    6.0993    0.0757    0.0000 C   0  0  2  0  0  0  0  0  0  0  0  0
    5.3849   -0.3368    0.0000 C   0  0  1  0  0  0  0  0  0  0  0  0
    4.6703    0.0757    0.0000 C   0  0  1  0  0  0  0  0  0  0  0  0
    6.8799    1.1521    0.0000 C   0  0  1  0  0  0  0  0  0  0  0  0
    5.3849    1.3132    0.0000 C   0  0  0  0  0  0  0  0  0  0  0  0
    4.6703    0.9007    0.0000 C   0  0  2  0  0  0  0  0  0  0  0  0
    6.8799   -0.1757    0.0000 C   0  0  0  0  0  0  0  0  0  0  0  0
    3.9196   -0.3425    0.0000 C   0  0  1  0  0  0  0  0  0  0  0  0
    7.3614    0.4882    0.0000 C   0  0  0  0  0  0  0  0  0  0  0  0
    5.3981   -1.1961    0.0000 C   0  0  0  0  0  0  0  0  0  0  0  0
    4.6572   -1.6314    0.0000 C   0  0  1  0  0  0  0  0  0  0  0  0
    6.0993    1.7257    0.0000 C   0  0  0  0  0  0  0  0  0  0  0  0
    3.9130   -1.2018    0.0000 C   0  0  0  0  0  0  0  0  0  0  0  0
    7.5482    1.6358    0.0000 C   0  0  0  0  0  0  0  0  0  0  0  0
    3.6434    0.4349    0.0000 C   0  0  0  0  0  0  0  0  0  0  0  0
    3.1550    0.1229    0.0000 C   0  0  0  0  0  0  0  0  0  0  0  0
    4.6603   -2.4564    0.0000 C   0  0  0  0  0  0  0  0  0  0  0  0
    3.1413   -1.6554    0.0000 C   0  0  0  0  0  0  0  0  0  0  0  0
    2.3729   -0.3127    0.0000 C   0  0  0  0  0  0  0  0  0  0  0  0
    8.3013    1.2990    0.0000 C   0  0  0  0  0  0  0  0  0  0  0  0
    2.3660   -1.2078    0.0000 C   0  0  0  0  0  0  0  0  0  0  0  0
    6.1691   -0.5806    0.0000 H   0  0  0  0  0  0  0  0  0  0  0  0
    5.9589   -0.6624    0.0000 H   0  0  0  0  0  0  0  0  0  0  0  0
  9  1  1  6  0  0  0
 10  2  1  6  0  0  0
 12  3  1  1  0  0  0
  4 20  2  0  0  0  0
  5 27  2  0  0  0  0
  6  7  1  0  0  0  0
  6 10  1  0  0  0  0
  6 11  1  0  0  0  0
  6 18  1  1  0  0  0
  7  8  1  0  0  0  0
  7 13  1  0  0  0  0
  7 28  1  6  0  0  0
  8  9  1  0  0  0  0
  8 16  1  0  0  0  0
  8 29  1  1  0  0  0
  9 12  1  0  0  0  0
  9 14  1  0  0  0  0
 10 15  1  0  0  0  0
 10 20  1  0  0  0  0
 11 12  1  0  0  0  0
 13 15  1  0  0  0  0
 14 19  1  0  0  0  0
 14 21  1  1  0  0  0
 14 22  1  0  0  0  0
 16 17  1  0  0  0  0
 17 19  1  0  0  0  0
 17 23  1  6  0  0  0
 19 24  2  0  0  0  0
 20 26  1  0  0  0  0
 22 25  2  0  0  0  0
 24 27  1  0  0  0  0
 25 27  1  0  0  0  0
M  END
> <DRUGBANK_ID>
DB00324

> <DRUG_GROUPS>
approved

> <GENERIC_NAME>
Fluorometholone

> <BRANDS>
Efflumidex; Flarex; Fluaton; Flumetholon; Fluor-op; FML Forte; FML Liquifilm

> <CHEMICAL_FORMULA>
C22H29FO4

> <MOLECULAR_WEIGHT>
376.4617

> <EXACT_MASS>
376.204987621

> <IUPAC_NAME>
(1R,2S,8S,10S,11S,14R,15S,17S)-14-acetyl-1-fluoro-14,17-dihydroxy-2,8,15-trimethyltetracyclo[8.7.0.0^{2,7}.0^{11,15}]heptadeca-3,6-dien-5-one

> <IUPAC_TRADITIONAL_NAME>
fluorometholone

> <INCHI_IDENTIFIER>
InChI=1S/C22H29FO4/c1-12-9-17-15-6-8-21(27,13(2)24)20(15,4)11-18(26)22(17,23)19(3)7-5-14(25)10-16(12)19/h5,7,10,12,15,17-18,26-27H,6,8-9,11H2,1-4H3/t12-,15-,17-,18-,19-,20-,21-,22-/m0/s1

> <INCHI_KEY>
InChIKey=FAOZLTXFLGPHNG-KNAQIMQKSA-N

> <SMILES>
[H][C@@]12CC[C@](O)(C(C)=O)[C@@]1(C)C[C@H](O)[C@@]1(F)[C@@]2([H])C[C@H](C)C2=CC(=O)C=C[C@]12C

> <JCHEM_ACCEPTOR_COUNT>
4

> <JCHEM_DONOR_COUNT>
2

> <JCHEM_ACIDIC_PKA>
12.65

> <JCHEM_BASIC_PKA>
-3.4

> <JCHEM_PHYSIOLOGICAL_CHARGE>
0

> <ALOGPS_LOGP>
2.34

> <JCHEM_LOGP>
2.42

> <ALOGPS_LOGS>
-4.4

> <JCHEM_POLARIZABILITY>
40.05

> <JCHEM_POLAR_SURFACE_AREA>
74.6

> <JCHEM_REFRACTIVITY>
100.87

> <JCHEM_ROTATABLE_BOND_COUNT>
1

> <ALOGPS_SOLUBILITY>
1.66e-02 g/l __ 

$$$$
