[NO NAME]
  Mrv0541 04221221592D          
Created with ChemWriter - http://chemwriter.com
 71 75  0  0  1  0            999 V2000
    7.7163   -2.4751    0.0000 C   0  0  0  0  0  0  0  0  0  0  0  0
    7.7163   -3.3001    0.0000 C   0  0  1  0  0  0  0  0  0  0  0  0
    8.4443   -2.0868    0.0000 O   0  0  0  0  0  0  0  0  0  0  0  0
    8.4443   -3.6883    0.0000 N   0  0  0  0  0  0  0  0  0  0  0  0
    6.3089   -3.3001    0.0000 S   0  0  0  0  0  0  0  0  0  0  0  0
    6.9883   -3.6883    0.0000 C   0  0  0  0  0  0  0  0  0  0  0  0
    6.9883   -2.0868    0.0000 N   0  0  0  0  0  0  0  0  0  0  0  0
    9.8031   -3.6883    0.0000 C   0  0  2  0  0  0  0  0  0  0  0  0
    9.1237   -3.3001    0.0000 C   0  0  0  0  0  0  0  0  0  0  0  0
    9.1237   -2.4751    0.0000 O   0  0  0  0  0  0  0  0  0  0  0  0
   10.5310   -3.3001    0.0000 C   0  0  0  0  0  0  0  0  0  0  0  0
    9.8031   -4.5133    0.0000 N   0  0  0  0  0  0  0  0  0  0  0  0
   11.2104   -3.6883    0.0000 O   0  0  0  0  0  0  0  0  0  0  0  0
   10.5310   -2.4751    0.0000 C   0  0  0  0  0  0  0  0  0  0  0  0
    9.1237   -4.9501    0.0000 C   0  0  0  0  0  0  0  0  0  0  0  0
    8.4443   -4.5133    0.0000 O   0  0  0  0  0  0  0  0  0  0  0  0
    9.1237   -5.7266    0.0000 C   0  0  1  0  0  0  0  0  0  0  0  0
    8.4443   -6.1148    0.0000 N   0  0  0  0  0  0  0  0  0  0  0  0
   11.2104   -8.5899    0.0000 N   0  0  0  0  0  0  0  0  0  0  0  0
   10.5310   -8.2016    0.0000 C   0  0  0  0  0  0  0  0  0  0  0  0
    9.8031   -6.1148    0.0000 C   0  0  0  0  0  0  0  0  0  0  0  0
   10.5310   -7.3766    0.0000 C   0  0  0  0  0  0  0  0  0  0  0  0
    9.8031   -6.9398    0.0000 C   0  0  0  0  0  0  0  0  0  0  0  0
    7.7163   -7.3766    0.0000 C   0  0  0  0  0  0  0  0  0  0  0  0
    8.9781   -7.6192    0.0000 N   0  0  0  0  0  0  0  0  0  0  0  0
    8.4443   -7.0369    0.0000 C   0  0  0  0  0  0  0  0  0  0  0  0
    7.7648   -8.1531    0.0000 C   0  0  0  0  0  0  0  0  0  0  0  0
    7.7163   -5.7266    0.0000 C   0  0  0  0  0  0  0  0  0  0  0  0
    6.9883   -6.9398    0.0000 C   0  0  0  0  0  0  0  0  0  0  0  0
    8.5899   -8.3472    0.0000 C   0  0  0  0  0  0  0  0  0  0  0  0
    6.9883   -6.1148    0.0000 C   0  0  1  0  0  0  0  0  0  0  0  0
    7.7163   -4.9501    0.0000 O   0  0  0  0  0  0  0  0  0  0  0  0
    6.3089   -5.7266    0.0000 N   0  0  0  0  0  0  0  0  0  0  0  0
    7.2310   -8.7839    0.0000 C   0  0  0  0  0  0  0  0  0  0  0  0
    8.8325   -9.0751    0.0000 C   0  0  0  0  0  0  0  0  0  0  0  0
    7.4736   -9.5119    0.0000 C   0  0  0  0  0  0  0  0  0  0  0  0
    8.2987   -9.7060    0.0000 C   0  0  0  0  0  0  0  0  0  0  0  0
    5.5810   -6.1148    0.0000 C   0  0  0  0  0  0  0  0  0  0  0  0
    4.9016   -5.7266    0.0000 C   0  0  2  0  0  0  0  0  0  0  0  0
    5.5810   -6.9398    0.0000 O   0  0  0  0  0  0  0  0  0  0  0  0
    4.1736   -6.1148    0.0000 C   0  0  0  0  0  0  0  0  0  0  0  0
    4.9016   -4.9501    0.0000 N   0  0  0  0  0  0  0  0  0  0  0  0
    4.1736   -6.9398    0.0000 C   0  0  0  0  0  0  0  0  0  0  0  0
    4.9016   -7.3766    0.0000 C   0  0  0  0  0  0  0  0  0  0  0  0
    3.4941   -7.3766    0.0000 C   0  0  0  0  0  0  0  0  0  0  0  0
    3.4941   -8.2016    0.0000 C   0  0  0  0  0  0  0  0  0  0  0  0
    4.9016   -8.2016    0.0000 C   0  0  0  0  0  0  0  0  0  0  0  0
    4.1736   -8.5899    0.0000 C   0  0  0  0  0  0  0  0  0  0  0  0
    4.1736   -4.5133    0.0000 C   0  0  0  0  0  0  0  0  0  0  0  0
    4.1736   -3.6883    0.0000 C   0  0  1  0  0  0  0  0  0  0  0  0
    3.4941   -4.9501    0.0000 O   0  0  0  0  0  0  0  0  0  0  0  0
    3.4941   -3.3001    0.0000 N   0  0  0  0  0  0  0  0  0  0  0  0
    5.5810   -3.6883    0.0000 S   0  0  0  0  0  0  0  0  0  0  0  0
    4.9016   -3.3001    0.0000 C   0  0  0  0  0  0  0  0  0  0  0  0
    2.7662   -3.6883    0.0000 C   0  0  0  0  0  0  0  0  0  0  0  0
    2.0868   -3.3001    0.0000 C   0  0  1  0  0  0  0  0  0  0  0  0
    2.7662   -4.5133    0.0000 O   0  0  0  0  0  0  0  0  0  0  0  0
    2.0868   -2.4751    0.0000 C   0  0  0  0  0  0  0  0  0  0  0  0
    1.4074   -3.6883    0.0000 N   0  0  0  0  0  0  0  0  0  0  0  0
    1.4074   -2.0868    0.0000 C   0  0  0  0  0  0  0  0  0  0  0  0
    0.6794   -2.4751    0.0000 C   0  0  0  0  0  0  0  0  0  0  0  0
    1.4074   -1.2618    0.0000 C   0  0  0  0  0  0  0  0  0  0  0  0
    0.6794   -0.8736    0.0000 C   0  0  0  0  0  0  0  0  0  0  0  0
    0.0000   -2.0868    0.0000 C   0  0  0  0  0  0  0  0  0  0  0  0
    0.0000   -1.2618    0.0000 C   0  0  0  0  0  0  0  0  0  0  0  0
    6.9883   -1.2618    0.0000 C   0  0  2  0  0  0  0  0  0  0  0  0
    7.7163   -0.8250    0.0000 C   0  0  0  0  0  0  0  0  0  0  0  0
    8.4443   -1.2618    0.0000 O   0  0  0  0  0  0  0  0  0  0  0  0
    6.2604   -0.8250    0.0000 C   0  0  2  0  0  0  0  0  0  0  0  0
    6.2604    0.0000    0.0000 O   0  0  0  0  0  0  0  0  0  0  0  0
    5.5810   -1.2618    0.0000 C   0  0  0  0  0  0  0  0  0  0  0  0
  1  2  1  0  0  0  0
  1  3  2  0  0  0  0
  1  7  1  0  0  0  0
  2  4  1  1  0  0  0
  2  6  1  0  0  0  0
  4  9  1  0  0  0  0
  5  6  1  0  0  0  0
  5 53  1  0  0  0  0
 66  7  1  1  0  0  0
  8  9  1  0  0  0  0
  8 11  1  0  0  0  0
  8 12  1  6  0  0  0
  9 10  2  0  0  0  0
 11 13  1  0  0  0  0
 11 14  1  0  0  0  0
 12 15  1  0  0  0  0
 15 16  2  0  0  0  0
 15 17  1  0  0  0  0
 17 18  1  6  0  0  0
 17 21  1  0  0  0  0
 18 28  1  0  0  0  0
 19 20  1  0  0  0  0
 20 22  1  0  0  0  0
 21 23  1  0  0  0  0
 22 23  1  0  0  0  0
 24 26  2  0  0  0  0
 24 27  1  0  0  0  0
 24 29  1  0  0  0  0
 25 26  1  0  0  0  0
 25 30  1  0  0  0  0
 27 30  2  0  0  0  0
 27 34  1  0  0  0  0
 28 31  1  0  0  0  0
 28 32  2  0  0  0  0
 29 31  1  0  0  0  0
 30 35  1  0  0  0  0
 31 33  1  1  0  0  0
 33 38  1  0  0  0  0
 34 36  2  0  0  0  0
 35 37  2  0  0  0  0
 36 37  1  0  0  0  0
 38 39  1  0  0  0  0
 38 40  2  0  0  0  0
 39 41  1  0  0  0  0
 39 42  1  6  0  0  0
 41 43  1  0  0  0  0
 42 49  1  0  0  0  0
 43 44  1  0  0  0  0
 43 45  2  0  0  0  0
 44 47  2  0  0  0  0
 45 46  1  0  0  0  0
 46 48  2  0  0  0  0
 47 48  1  0  0  0  0
 49 50  1  0  0  0  0
 49 51  2  0  0  0  0
 50 52  1  1  0  0  0
 50 54  1  0  0  0  0
 52 55  1  0  0  0  0
 53 54  1  0  0  0  0
 55 56  1  0  0  0  0
 55 57  2  0  0  0  0
 56 58  1  0  0  0  0
 56 59  1  6  0  0  0
 58 60  1  0  0  0  0
 60 61  1  0  0  0  0
 60 62  2  0  0  0  0
 61 64  2  0  0  0  0
 62 63  1  0  0  0  0
 63 65  2  0  0  0  0
 64 65  1  0  0  0  0
 66 67  1  0  0  0  0
 66 69  1  0  0  0  0
 67 68  1  0  0  0  0
 69 70  1  1  0  0  0
 69 71  1  0  0  0  0
M  END
> <DRUGBANK_ID>
DB00104

> <DRUG_GROUPS>
approved; investigational

> <GENERIC_NAME>
Octreotide

> <SYNONYMS>
Octreotida; Octreotidum; Octrotide

> <SALTS>
Octreotide acetate

> <BRANDS>
Sandostatin; Sandostatin LAR

> <CHEMICAL_FORMULA>
C49H66N10O10S2

> <MOLECULAR_WEIGHT>
1019.239

> <EXACT_MASS>
1018.440479762

> <IUPAC_NAME>
(4R,7S,10S,13R,16S,19R)-19-[(2R)-2-amino-3-phenylpropanamido]-10-(4-aminobutyl)-16-benzyl-N-[(2R,3R)-1,3-dihydroxybutan-2-yl]-7-(1-hydroxyethyl)-13-(1H-indol-3-ylmethyl)-6,9,12,15,18-pentaoxo-1,2-dithia-5,8,11,14,17-pentaazacycloicosane-4-carboxamide

> <IUPAC_TRADITIONAL_NAME>
(4R,7S,10S,13R,16S,19R)-19-[(2R)-2-amino-3-phenylpropanamido]-10-(4-aminobutyl)-16-benzyl-N-[(2R,3R)-1,3-dihydroxybutan-2-yl]-7-(1-hydroxyethyl)-13-(1H-indol-3-ylmethyl)-6,9,12,15,18-pentaoxo-1,2-dithia-5,8,11,14,17-pentaazacycloicosane-4-carboxamide

> <INCHI_IDENTIFIER>
InChI=1S/C49H66N10O10S2/c1-28(61)39(25-60)56-48(68)41-27-71-70-26-40(57-43(63)34(51)21-30-13-5-3-6-14-30)47(67)54-37(22-31-15-7-4-8-16-31)45(65)55-38(23-32-24-52-35-18-10-9-17-33(32)35)46(66)53-36(19-11-12-20-50)44(64)59-42(29(2)62)49(69)58-41/h3-10,13-18,24,28-29,34,36-42,52,60-62H,11-12,19-23,25-27,50-51H2,1-2H3,(H,53,66)(H,54,67)(H,55,65)(H,56,68)(H,57,63)(H,58,69)(H,59,64)/t28-,29?,34-,36+,37+,38-,39-,40+,41+,42+/m1/s1

> <INCHI_KEY>
InChIKey=DEQANNDTNATYII-RRCPSWKPSA-N

> <SMILES>
C[C@@H](O)[C@@H](CO)NC(=O)[C@@H]1CSSC[C@H](NC(=O)[C@H](N)CC2=CC=CC=C2)C(=O)N[C@@H](CC2=CC=CC=C2)C(=O)N[C@H](CC2=CNC3=C2C=CC=C3)C(=O)N[C@@H](CCCCN)C(=O)N[C@@H](C(C)O)C(=O)N1

> <JCHEM_ACCEPTOR_COUNT>
12

> <JCHEM_DONOR_COUNT>
13

> <JCHEM_ACIDIC_PKA>
11.4

> <JCHEM_BASIC_PKA>
10.17

> <JCHEM_PHYSIOLOGICAL_CHARGE>
2

> <ALOGPS_LOGP>
0.42

> <JCHEM_LOGP>
-1.4

> <ALOGPS_LOGS>
-4.9

> <JCHEM_POLARIZABILITY>
105.28

> <JCHEM_POLAR_SURFACE_AREA>
332.22

> <JCHEM_REFRACTIVITY>
269.77

> <JCHEM_ROTATABLE_BOND_COUNT>
17

> <ALOGPS_SOLUBILITY>
1.22e-02 g/l __ 

$$$$
