830
  Mrv0541 02231215022D          

 13 14  0  0  1  0            999 V2000
    4.5080    0.4620    0.0000 O   0  0  0  0  0  0  0  0  0  0  0  0
    4.5080   -1.1880    0.0000 N   0  0  0  0  0  0  0  0  0  0  0  0
    3.7935   -0.7755    0.0000 C   0  0  0  0  0  0  0  0  0  0  0  0
    3.7935    0.0495    0.0000 C   0  0  0  0  0  0  0  0  0  0  0  0
    5.2224   -0.7755    0.0000 C   0  0  0  0  0  0  0  0  0  0  0  0
    5.2224    0.0495    0.0000 C   0  0  0  0  0  0  0  0  0  0  0  0
    3.0791    0.4620    0.0000 C   0  0  0  0  0  0  0  0  0  0  0  0
    3.0791   -1.1880    0.0000 C   0  0  0  0  0  0  0  0  0  0  0  0
    2.3645    0.0495    0.0000 C   0  0  0  0  0  0  0  0  0  0  0  0
    3.0791    1.2870    0.0000 C   0  0  0  0  0  0  0  0  0  0  0  0
    1.6500    0.4620    0.0000 C   0  0  0  0  0  0  0  0  0  0  0  0
    2.3645    1.6995    0.0000 C   0  0  0  0  0  0  0  0  0  0  0  0
    1.6500    1.2870    0.0000 C   0  0  0  0  0  0  0  0  0  0  0  0
  1  4  1  0  0  0  0
  1  6  1  0  0  0  0
  2  3  1  0  0  0  0
  2  5  1  0  0  0  0
  3  4  1  0  0  0  0
  3  8  1  0  0  0  0
  4  7  1  0  0  0  0
  5  6  1  0  0  0  0
  7  9  2  0  0  0  0
  7 10  1  0  0  0  0
  9 11  1  0  0  0  0
 10 12  2  0  0  0  0
 11 13  2  0  0  0  0
 12 13  1  0  0  0  0
M  END
> <DRUGBANK_ID>
DB00830

> <DRUG_GROUPS>
approved; illicit

> <GENERIC_NAME>
Phenmetrazine

> <SYNONYMS>
Fenmetrazin; Fenmetrazina; Phenmetrazinum

> <SALTS>
Phenmetrazine hydrochloride

> <BRANDS>
Preludin

> <CHEMICAL_FORMULA>
C11H15NO

> <MOLECULAR_WEIGHT>
177.2429

> <EXACT_MASS>
177.115364107

> <IUPAC_NAME>
3-methyl-2-phenylmorpholine

> <IUPAC_TRADITIONAL_NAME>
phenmetrazine

> <INCHI_IDENTIFIER>
InChI=1S/C11H15NO/c1-9-11(13-8-7-12-9)10-5-3-2-4-6-10/h2-6,9,11-12H,7-8H2,1H3

> <INCHI_KEY>
InChIKey=OOBHFESNSZDWIU-UHFFFAOYSA-N

> <SMILES>
CC1NCCOC1C1=CC=CC=C1

> <JCHEM_ACCEPTOR_COUNT>
2

> <JCHEM_DONOR_COUNT>
1

> <JCHEM_BASIC_PKA>
8.22

> <JCHEM_PHYSIOLOGICAL_CHARGE>
1

> <ALOGPS_LOGP>
1.45

> <JCHEM_LOGP>
1.79

> <ALOGPS_LOGS>
-1.9

> <JCHEM_POLARIZABILITY>
20.1

> <JCHEM_POLAR_SURFACE_AREA>
21.26

> <JCHEM_REFRACTIVITY>
52.47

> <JCHEM_ROTATABLE_BOND_COUNT>
1

> <ALOGPS_SOLUBILITY>
2.44e+00 g/l __ 

$$$$
