630
  Mrv0541 02231214502D          

 14 13  0  0  0  0            999 V2000
    4.2365   -0.4851    0.0000 P   0  0  0  0  0  0  0  0  0  0  0  0
    2.8075   -1.3101    0.0000 P   0  0  0  0  0  0  0  0  0  0  0  0
    3.9345   -1.6121    0.0000 O   0  0  0  0  0  0  0  0  0  0  0  0
    4.9509   -0.0726    0.0000 O   0  0  0  0  0  0  0  0  0  0  0  0
    4.6490   -1.1996    0.0000 O   0  0  0  0  0  0  0  0  0  0  0  0
    2.0930   -1.7226    0.0000 O   0  0  0  0  0  0  0  0  0  0  0  0
    2.3950   -0.5957    0.0000 O   0  0  0  0  0  0  0  0  0  0  0  0
    4.2365    0.3399    0.0000 O   0  0  0  0  0  0  0  0  0  0  0  0
    2.8075   -2.1351    0.0000 O   0  0  0  0  0  0  0  0  0  0  0  0
    2.3950    1.8794    0.0000 N   0  0  0  0  0  0  0  0  0  0  0  0
    3.5220   -0.8976    0.0000 C   0  0  0  0  0  0  0  0  0  0  0  0
    3.1095   -0.1832    0.0000 C   0  0  0  0  0  0  0  0  0  0  0  0
    3.1095    0.6419    0.0000 C   0  0  0  0  0  0  0  0  0  0  0  0
    2.3950    1.0544    0.0000 C   0  0  0  0  0  0  0  0  0  0  0  0
  1  4  1  0  0  0  0
  1  5  1  0  0  0  0
  1  8  2  0  0  0  0
  1 11  1  0  0  0  0
  2  6  1  0  0  0  0
  2  7  1  0  0  0  0
  2  9  2  0  0  0  0
  2 11  1  0  0  0  0
  3 11  1  0  0  0  0
 10 14  1  0  0  0  0
 11 12  1  0  0  0  0
 12 13  1  0  0  0  0
 13 14  1  0  0  0  0
M  END
> <DRUGBANK_ID>
DB00630

> <DRUG_GROUPS>
approved

> <GENERIC_NAME>
Alendronate

> <SYNONYMS>
Acide Alendronique; Acido Alendronico; Acidum Alendronicum; Alendronic acid

> <SALTS>
Alendronate Sodium

> <BRANDS>
Alenotop; Alned; Arendal; Beenos; Berlex; Denfos; Densidron; Dronat; Durost; Fixopan; Forosa; Fosagen; Fosalen; Fosamax; Fosmin; Fostolin; Fosval; Huesobone; Lendrate; Oseolen; Ostemax

> <CHEMICAL_FORMULA>
C4H13NO7P2

> <MOLECULAR_WEIGHT>
249.096

> <EXACT_MASS>
249.016724799

> <IUPAC_NAME>
(4-amino-1-hydroxy-1-phosphonobutyl)phosphonic acid

> <IUPAC_TRADITIONAL_NAME>
4-amino-1-hydroxy-1-phosphonobutylphosphonic acid

> <INCHI_IDENTIFIER>
InChI=1S/C4H13NO7P2/c5-3-1-2-4(6,13(7,8)9)14(10,11)12/h6H,1-3,5H2,(H2,7,8,9)(H2,10,11,12)

> <INCHI_KEY>
InChIKey=OGSPWJRAVKPPFI-UHFFFAOYSA-N

> <SMILES>
NCCCC(O)(P(O)(O)=O)P(O)(O)=O

> <JCHEM_ACCEPTOR_COUNT>
8

> <JCHEM_DONOR_COUNT>
6

> <JCHEM_ACIDIC_PKA>
0.69

> <JCHEM_BASIC_PKA>
9.91

> <JCHEM_PHYSIOLOGICAL_CHARGE>
-1

> <ALOGPS_LOGP>
-1.3

> <JCHEM_LOGP>
-4.2

> <ALOGPS_LOGS>
-1.2

> <JCHEM_POLARIZABILITY>
19.4

> <JCHEM_POLAR_SURFACE_AREA>
161.31

> <JCHEM_REFRACTIVITY>
47.37

> <JCHEM_ROTATABLE_BOND_COUNT>
5

> <ALOGPS_SOLUBILITY>
1.69e+01 g/l __ 

$$$$
