344
  Mrv0541 02231214372D          

 20 22  0  0  0  0            999 V2000
    2.5989   -1.7283    0.0000 N   0  0  0  0  0  0  0  0  0  0  0  0
    4.0276    0.7461    0.0000 C   0  0  0  0  0  0  0  0  0  0  0  0
    4.0276   -0.0786    0.0000 C   0  0  0  0  0  0  0  0  0  0  0  0
    4.7706    1.1040    0.0000 C   0  0  0  0  0  0  0  0  0  0  0  0
    3.2842    1.1040    0.0000 C   0  0  0  0  0  0  0  0  0  0  0  0
    3.3131   -0.4911    0.0000 C   0  0  0  0  0  0  0  0  0  0  0  0
    4.9542    1.9080    0.0000 C   0  0  0  0  0  0  0  0  0  0  0  0
    3.1007    1.9080    0.0000 C   0  0  0  0  0  0  0  0  0  0  0  0
    3.3130   -1.3158    0.0000 C   0  0  0  0  0  0  0  0  0  0  0  0
    5.3914    0.5102    0.0000 C   0  0  0  0  0  0  0  0  0  0  0  0
    2.6637    0.5102    0.0000 C   0  0  0  0  0  0  0  0  0  0  0  0
    4.4398    2.5530    0.0000 C   0  0  0  0  0  0  0  0  0  0  0  0
    3.6151    2.5530    0.0000 C   0  0  0  0  0  0  0  0  0  0  0  0
    5.7710    2.1739    0.0000 C   0  0  0  0  0  0  0  0  0  0  0  0
    2.2838    2.1739    0.0000 C   0  0  0  0  0  0  0  0  0  0  0  0
    6.2142    0.7568    0.0000 C   0  0  0  0  0  0  0  0  0  0  0  0
    1.8406    0.7568    0.0000 C   0  0  0  0  0  0  0  0  0  0  0  0
    6.4054    1.5946    0.0000 C   0  0  0  0  0  0  0  0  0  0  0  0
    1.6497    1.5947    0.0000 C   0  0  0  0  0  0  0  0  0  0  0  0
    2.5989   -2.5530    0.0000 C   0  0  0  0  0  0  0  0  0  0  0  0
  1  9  1  0  0  0  0
  1 20  1  0  0  0  0
  2  3  1  0  0  0  0
  2  4  1  0  0  0  0
  2  5  1  0  0  0  0
  3  6  1  0  0  0  0
  4  7  1  0  0  0  0
  4 10  2  0  0  0  0
  5  8  1  0  0  0  0
  5 11  2  0  0  0  0
  6  9  1  0  0  0  0
  7 12  1  0  0  0  0
  7 14  2  0  0  0  0
  8 13  1  0  0  0  0
  8 15  2  0  0  0  0
 10 16  1  0  0  0  0
 11 17  1  0  0  0  0
 12 13  2  0  0  0  0
 14 18  1  0  0  0  0
 15 19  1  0  0  0  0
 16 18  2  0  0  0  0
 17 19  2  0  0  0  0
M  END
> <DRUGBANK_ID>
DB00344

> <DRUG_GROUPS>
approved

> <GENERIC_NAME>
Protriptyline

> <SYNONYMS>


> <BRANDS>


> <CHEMICAL_FORMULA>
C19H21N

> <MOLECULAR_WEIGHT>
263.3767

> <EXACT_MASS>
263.167399677

> <IUPAC_NAME>
methyl(3-{tricyclo[9.4.0.0^{3,8}]pentadeca-1(11),3(8),4,6,9,12,14-heptaen-2-yl}propyl)amine

> <IUPAC_TRADITIONAL_NAME>
protriptyline

> <INCHI_IDENTIFIER>
InChI=1S/C19H21N/c1-20-14-6-11-19-17-9-4-2-7-15(17)12-13-16-8-3-5-10-18(16)19/h2-5,7-10,12-13,19-20H,6,11,14H2,1H3

> <INCHI_KEY>
InChIKey=BWPIARFWQZKAIA-UHFFFAOYSA-N

> <SMILES>
CNCCCC1C2=CC=CC=C2C=CC2=CC=CC=C12

> <JCHEM_ACCEPTOR_COUNT>
1

> <JCHEM_DONOR_COUNT>
1

> <JCHEM_BASIC_PKA>
10.54

> <JCHEM_PHYSIOLOGICAL_CHARGE>
1

> <ALOGPS_LOGP>
4.65

> <JCHEM_LOGP>
4.5

> <ALOGPS_LOGS>
-6.1

> <JCHEM_POLARIZABILITY>
31.6

> <JCHEM_POLAR_SURFACE_AREA>
12.03

> <JCHEM_REFRACTIVITY>
87.3

> <JCHEM_ROTATABLE_BOND_COUNT>
4

> <ALOGPS_SOLUBILITY>
2.31e-04 g/l __ 

$$$$
