461
  Mrv0541 02231214422D          

 17 18  0  0  0  0            999 V2000
    8.1336    1.2429    0.0000 O   0  0  0  0  0  0  0  0  0  0  0  0
    2.3641   -1.2516    0.0000 O   0  0  0  0  0  0  0  0  0  0  0  0
    4.5073   -0.0143    0.0000 C   0  0  0  0  0  0  0  0  0  0  0  0
    3.7929   -0.4267    0.0000 C   0  0  0  0  0  0  0  0  0  0  0  0
    5.9361   -0.0143    0.0000 C   0  0  0  0  0  0  0  0  0  0  0  0
    5.9361    0.8106    0.0000 C   0  0  0  0  0  0  0  0  0  0  0  0
    5.2216   -0.4267    0.0000 C   0  0  0  0  0  0  0  0  0  0  0  0
    3.0786   -0.0143    0.0000 C   0  0  0  0  0  0  0  0  0  0  0  0
    4.5073    0.8106    0.0000 C   0  0  0  0  0  0  0  0  0  0  0  0
    5.2216    1.2230    0.0000 C   0  0  0  0  0  0  0  0  0  0  0  0
    6.6734   -0.4553    0.0000 C   0  0  0  0  0  0  0  0  0  0  0  0
    6.6734    1.2516    0.0000 C   0  0  0  0  0  0  0  0  0  0  0  0
    7.4209    0.8278    0.0000 C   0  0  0  0  0  0  0  0  0  0  0  0
    7.4209   -0.0314    0.0000 C   0  0  0  0  0  0  0  0  0  0  0  0
    2.3641   -0.4267    0.0000 C   0  0  0  0  0  0  0  0  0  0  0  0
    1.6498   -0.0143    0.0000 C   0  0  0  0  0  0  0  0  0  0  0  0
    8.8496    0.8333    0.0000 C   0  0  0  0  0  0  0  0  0  0  0  0
  1 13  1  0  0  0  0
  1 17  1  0  0  0  0
  2 15  2  0  0  0  0
  3  4  1  0  0  0  0
  3  7  2  0  0  0  0
  3  9  1  0  0  0  0
  4  8  1  0  0  0  0
  5  6  2  0  0  0  0
  5  7  1  0  0  0  0
  5 11  1  0  0  0  0
  6 10  1  0  0  0  0
  6 12  1  0  0  0  0
  8 15  1  0  0  0  0
  9 10  2  0  0  0  0
 11 14  2  0  0  0  0
 12 13  2  0  0  0  0
 13 14  1  0  0  0  0
 15 16  1  0  0  0  0
M  END
> <DRUGBANK_ID>
DB00461

> <DRUG_GROUPS>
approved

> <GENERIC_NAME>
Nabumetone

> <SYNONYMS>
Nabumetonum

> <BRANDS>
Arthaxan; Balmox; Dolsinal; Listran; Mebutan; Nabuser; Relafen; Relif; Relifen; Relifex

> <CHEMICAL_FORMULA>
C15H16O2

> <MOLECULAR_WEIGHT>
228.2863

> <EXACT_MASS>
228.115029756

> <IUPAC_NAME>
4-(6-methoxynaphthalen-2-yl)butan-2-one

> <IUPAC_TRADITIONAL_NAME>
nabumetone

> <INCHI_IDENTIFIER>
InChI=1S/C15H16O2/c1-11(16)3-4-12-5-6-14-10-15(17-2)8-7-13(14)9-12/h5-10H,3-4H2,1-2H3

> <INCHI_KEY>
InChIKey=BLXXJMDCKKHMKV-UHFFFAOYSA-N

> <SMILES>
COC1=CC2=C(C=C1)C=C(CCC(C)=O)C=C2

> <JCHEM_ACCEPTOR_COUNT>
2

> <JCHEM_DONOR_COUNT>
0

> <JCHEM_ACIDIC_PKA>
19.59

> <JCHEM_BASIC_PKA>
-4.8

> <JCHEM_PHYSIOLOGICAL_CHARGE>
0

> <ALOGPS_LOGP>
3.41

> <JCHEM_LOGP>
3.22

> <ALOGPS_LOGS>
-5.1

> <JCHEM_POLARIZABILITY>
26.17

> <JCHEM_POLAR_SURFACE_AREA>
26.3

> <JCHEM_REFRACTIVITY>
68.43

> <JCHEM_ROTATABLE_BOND_COUNT>
4

> <ALOGPS_SOLUBILITY>
1.93e-03 g/l __ 

$$$$
