683
  Mrv0541 02231214552D          

 23 26  0  0  0  0            999 V2000
    1.6500   -0.2321    0.0000 Cl   0  0  0  0  0  0  0  0  0  0  0  0
    5.3329    1.8438    0.0000 F    0  0  0  0  0  0  0  0  0  0  0  0
    4.8159   -1.3269    0.0000 N    0  0  0  0  0  0  0  0  0  0  0  0
    5.2284    0.4805    0.0000 N    0  0  0  0  0  0  0  0  0  0  0  0
    5.7352   -2.2849    0.0000 N    0  0  0  0  0  0  0  0  0  0  0  0
    4.0726   -0.9689    0.0000 C    0  0  0  0  0  0  0  0  0  0  0  0
    5.5592   -0.9689    0.0000 C    0  0  0  0  0  0  0  0  0  0  0  0
    3.8890   -0.1645    0.0000 C    0  0  0  0  0  0  0  0  0  0  0  0
    5.7428   -0.1645    0.0000 C    0  0  0  0  0  0  0  0  0  0  0  0
    4.4034    0.4805    0.0000 C    0  0  0  0  0  0  0  0  0  0  0  0
    4.9281   -2.1392    0.0000 C    0  0  0  0  0  0  0  0  0  0  0  0
    6.1244   -1.5631    0.0000 C    0  0  0  0  0  0  0  0  0  0  0  0
    3.4517   -1.5630    0.0000 C    0  0  0  0  0  0  0  0  0  0  0  0
    3.0718    0.1014    0.0000 C    0  0  0  0  0  0  0  0  0  0  0  0
    4.0454    1.2238    0.0000 C    0  0  0  0  0  0  0  0  0  0  0  0
    4.3328   -2.7104    0.0000 C    0  0  0  0  0  0  0  0  0  0  0  0
    2.6286   -1.3160    0.0000 C    0  0  0  0  0  0  0  0  0  0  0  0
    2.4374   -0.4783    0.0000 C    0  0  0  0  0  0  0  0  0  0  0  0
    4.5102    1.9054    0.0000 C    0  0  0  0  0  0  0  0  0  0  0  0
    3.2227    1.2854    0.0000 C    0  0  0  0  0  0  0  0  0  0  0  0
    4.1523    2.6488    0.0000 C    0  0  0  0  0  0  0  0  0  0  0  0
    2.8648    2.0288    0.0000 C    0  0  0  0  0  0  0  0  0  0  0  0
    3.3296    2.7104    0.0000 C    0  0  0  0  0  0  0  0  0  0  0  0
  1 18  1  0  0  0  0
  2 19  1  0  0  0  0
  3  6  1  0  0  0  0
  3  7  1  0  0  0  0
  3 11  1  0  0  0  0
  4  9  1  0  0  0  0
  4 10  2  0  0  0  0
  5 11  2  0  0  0  0
  5 12  1  0  0  0  0
  6  8  2  0  0  0  0
  6 13  1  0  0  0  0
  7  9  1  0  0  0  0
  7 12  2  0  0  0  0
  8 10  1  0  0  0  0
  8 14  1  0  0  0  0
 10 15  1  0  0  0  0
 11 16  1  0  0  0  0
 13 17  2  0  0  0  0
 14 18  2  0  0  0  0
 15 19  1  0  0  0  0
 15 20  2  0  0  0  0
 17 18  1  0  0  0  0
 19 21  2  0  0  0  0
 20 22  1  0  0  0  0
 21 23  1  0  0  0  0
 22 23  2  0  0  0  0
M  END
> <DRUGBANK_ID>
DB00683

> <DRUG_GROUPS>
approved; illicit

> <GENERIC_NAME>
Midazolam

> <SYNONYMS>
Midazolam; Midazolamum

> <SALTS>
Midazolam Hydrochloride 

> <BRANDS>
Anquil; Benzosed; Dalam; Damizol; Demizolam; Doricum; Dormicum; Dormid; Dormipron; Dormire; Dormitol; Dormixal; Dormonid; Drimnorth; Epistatus; Flormidal; Fulsed; Fulsed Injection; Garen; Gobbizolam; Hipnazolam; Hipnoz; Hypnofast; Hypnovel; Ipnovel; Nocturna; Setam; Talentum; Terap; Versed

> <CHEMICAL_FORMULA>
C18H13ClFN3

> <MOLECULAR_WEIGHT>
325.767

> <EXACT_MASS>
325.078203343

> <IUPAC_NAME>
12-chloro-9-(2-fluorophenyl)-3-methyl-2,4,8-triazatricyclo[8.4.0.0^{2,6}]tetradeca-1(10),3,5,8,11,13-hexaene

> <IUPAC_TRADITIONAL_NAME>
midazolam

> <INCHI_IDENTIFIER>
InChI=1S/C18H13ClFN3/c1-11-21-9-13-10-22-18(14-4-2-3-5-16(14)20)15-8-12(19)6-7-17(15)23(11)13/h2-9H,10H2,1H3

> <INCHI_KEY>
InChIKey=DDLIGBOFAVUZHB-UHFFFAOYSA-N

> <SMILES>
CC1=NC=C2CN=C(C3=CC=CC=C3F)C3=C(C=CC(Cl)=C3)N12

> <JCHEM_ACCEPTOR_COUNT>
2

> <JCHEM_DONOR_COUNT>
0

> <JCHEM_BASIC_PKA>
6.57

> <JCHEM_PHYSIOLOGICAL_CHARGE>
0

> <ALOGPS_LOGP>
3.89

> <JCHEM_LOGP>
3.33

> <ALOGPS_LOGS>
-4.5

> <JCHEM_POLARIZABILITY>
32.7

> <JCHEM_POLAR_SURFACE_AREA>
30.18

> <JCHEM_REFRACTIVITY>
99.43

> <JCHEM_ROTATABLE_BOND_COUNT>
1

> <ALOGPS_SOLUBILITY>
9.87e-03 g/l __ 

$$$$
