
  Mrv0541 02231214482D          

123135  0  0  1  0            999 V2000
    2.3674   -7.1899    0.0000 C   0  0  0  0  0  0  0  0  0  0  0  0
    2.4806   -6.3727    0.0000 O   0  0  0  0  0  0  0  0  0  0  0  0
    1.8294   -5.8661    0.0000 C   0  0  1  0  0  0  0  0  0  0  0  0
    1.9425   -5.0489    0.0000 C   0  0  0  0  0  0  0  0  0  0  0  0
    1.2914   -4.5423    0.0000 C   0  0  1  0  0  0  0  0  0  0  0  0
    0.5271   -4.8529    0.0000 O   0  0  0  0  0  0  0  0  0  0  0  0
    0.4140   -5.6701    0.0000 C   0  0  1  0  0  0  0  0  0  0  0  0
   -0.3503   -5.9808    0.0000 C   0  0  0  0  0  0  0  0  0  0  0  0
    1.0651   -6.1767    0.0000 C   0  0  2  0  0  0  0  0  0  0  0  0
    0.9520   -6.9939    0.0000 O   0  0  0  0  0  0  0  0  0  0  0  0
    1.4045   -3.7251    0.0000 O   0  0  0  0  0  0  0  0  0  0  0  0
    0.7534   -3.2185    0.0000 C   0  0  1  0  0  0  0  0  0  0  0  0
   -0.0109   -3.5291    0.0000 C   0  0  2  0  0  0  0  0  0  0  0  0
   -0.1240   -4.3463    0.0000 C   0  0  0  0  0  0  0  0  0  0  0  0
   -0.6621   -3.0226    0.0000 O   0  0  0  0  0  0  0  0  0  0  0  0
   -0.5489   -2.2054    0.0000 C   0  0  2  0  0  0  0  0  0  0  0  0
    0.2154   -1.8947    0.0000 C   0  0  0  0  0  0  0  0  0  0  0  0
    0.8665   -2.4013    0.0000 C   0  0  2  0  0  0  0  0  0  0  0  0
    1.6308   -2.0907    0.0000 O   0  0  0  0  0  0  0  0  0  0  0  0
    2.2820   -2.5973    0.0000 C   0  0  0  0  0  0  0  0  0  0  0  0
   -1.2001   -1.6988    0.0000 O   0  0  0  0  0  0  0  0  0  0  0  0
   -1.0869   -0.8816    0.0000 C   0  0  1  0  0  0  0  0  0  0  0  0
   -1.7381   -0.3750    0.0000 C   0  0  1  0  0  0  0  0  0  0  0  0
   -2.5024   -0.6856    0.0000 C   0  0  0  0  0  0  0  0  0  0  0  0
   -1.6249    0.4422    0.0000 C   0  0  0  0  0  0  0  0  0  0  0  0
   -2.2761    0.9488    0.0000 C   0  0  0  0  0  0  0  0  0  0  0  0
   -2.1629    1.7660    0.0000 C   0  0  0  0  0  0  0  0  0  0  0  0
   -2.8141    2.2726    0.0000 C   0  0  0  0  0  0  0  0  0  0  0  0
   -3.6370    2.2134    0.0000 C   0  0  0  0  0  0  0  0  0  0  0  0
   -3.9476    2.9777    0.0000 O   0  0  0  0  0  0  0  0  0  0  0  0
   -3.3167    3.5093    0.0000 C   0  0  2  0  0  0  0  0  0  0  0  0
   -3.2896    4.3338    0.0000 C   0  0  2  0  0  0  0  0  0  0  0  0
   -3.9901    4.7696    0.0000 O   0  0  0  0  0  0  0  0  0  0  0  0
   -2.5620    4.7226    0.0000 C   0  0  0  0  0  0  0  0  0  0  0  0
   -2.5349    5.5472    0.0000 C   0  0  0  0  0  0  0  0  0  0  0  0
   -1.8614    4.2869    0.0000 C   0  0  0  0  0  0  0  0  0  0  0  0
   -1.9367    3.4004    0.0000 C   0  0  1  0  0  0  0  0  0  0  0  0
   -1.2855    2.8938    0.0000 C   0  0  0  0  0  0  0  0  0  0  0  0
   -1.3987    2.0766    0.0000 O   0  0  0  0  0  0  0  0  0  0  0  0
   -0.5212    3.2045    0.0000 O   0  0  0  0  0  0  0  0  0  0  0  0
    0.1299    2.6979    0.0000 C   0  0  1  0  0  0  0  0  0  0  0  0
    0.0168    1.8807    0.0000 C   0  0  0  0  0  0  0  0  0  0  0  0
    0.6679    1.3741    0.0000 C   0  0  1  0  0  0  0  0  0  0  0  0
    0.5548    0.5569    0.0000 C   0  0  0  0  0  0  0  0  0  0  0  0
   -0.2095    0.2463    0.0000 C   0  0  0  0  0  0  0  0  0  0  0  0
   -0.3226   -0.5709    0.0000 C   0  0  0  0  0  0  0  0  0  0  0  0
    0.3285   -1.0775    0.0000 C   0  0  0  0  0  0  0  0  0  0  0  0
    1.4322    1.6847    0.0000 O   0  0  0  0  0  0  0  0  0  0  0  0
    1.5454    2.5019    0.0000 C   0  0  2  0  0  0  0  0  0  0  0  0
    1.6585    3.3191    0.0000 C   0  0  0  0  0  0  0  0  0  0  0  0
    2.4228    3.6297    0.0000 C   0  0  0  0  0  0  0  0  0  0  0  0
    3.0739    3.1232    0.0000 C   0  0  2  0  0  0  0  0  0  0  0  0
    3.8382    3.4338    0.0000 C   0  0  0  0  0  0  0  0  0  0  0  0
    2.9608    2.3060    0.0000 C   0  0  2  0  0  0  0  0  0  0  0  0
    2.1965    1.9953    0.0000 O   0  0  0  0  0  0  0  0  0  0  0  0
    3.6120    1.7994    0.0000 C   0  0  0  0  0  0  0  0  0  0  0  0
    3.4988    0.9822    0.0000 C   0  0  0  0  0  0  0  0  0  0  0  0
    4.3762    2.1100    0.0000 C   0  0  0  0  0  0  0  0  0  0  0  0
    0.8942    3.0085    0.0000 C   0  0  0  0  0  0  0  0  0  0  0  0
   -2.7010    3.0898    0.0000 C   0  0  2  0  0  0  0  0  0  0  0  0
   -2.6137    3.9102    0.0000 O   0  0  0  0  0  0  0  0  0  0  0  0
   18.8442    0.8897    0.0000 C   0  0  0  0  0  0  0  0  0  0  0  0
   18.1930    1.3963    0.0000 C   0  0  0  0  0  0  0  0  0  0  0  0
   17.4287    1.0857    0.0000 C   0  0  1  0  0  0  0  0  0  0  0  0
   17.3156    0.2685    0.0000 C   0  0  0  0  0  0  0  0  0  0  0  0
   16.7776    1.5923    0.0000 C   0  0  1  0  0  0  0  0  0  0  0  0
   16.0133    1.2816    0.0000 O   0  0  0  0  0  0  0  0  0  0  0  0
   15.3621    1.7882    0.0000 C   0  0  2  0  0  0  0  0  0  0  0  0
   15.4753    2.6054    0.0000 C   0  0  0  0  0  0  0  0  0  0  0  0
   16.2396    2.9161    0.0000 C   0  0  0  0  0  0  0  0  0  0  0  0
   16.8907    2.4095    0.0000 C   0  0  2  0  0  0  0  0  0  0  0  0
   17.6550    2.7201    0.0000 C   0  0  0  0  0  0  0  0  0  0  0  0
   14.7110    2.2948    0.0000 C   0  0  0  0  0  0  0  0  0  0  0  0
   13.9467    1.9842    0.0000 C   0  0  2  0  0  0  0  0  0  0  0  0
   13.8336    1.1670    0.0000 C   0  0  0  0  0  0  0  0  0  0  0  0
   14.4847    0.6604    0.0000 C   0  0  1  0  0  0  0  0  0  0  0  0
   14.3716   -0.1568    0.0000 C   0  0  0  0  0  0  0  0  0  0  0  0
   13.6073   -0.4674    0.0000 C   0  0  0  0  0  0  0  0  0  0  0  0
   13.4941   -1.2846    0.0000 C   0  0  0  0  0  0  0  0  0  0  0  0
   14.1453   -1.7912    0.0000 C   0  0  0  0  0  0  0  0  0  0  0  0
   12.7299   -1.5952    0.0000 C   0  0  1  0  0  0  0  0  0  0  0  0
   12.6167   -2.4124    0.0000 O   0  0  0  0  0  0  0  0  0  0  0  0
   11.8524   -2.7231    0.0000 C   0  0  1  0  0  0  0  0  0  0  0  0
   11.7393   -3.5403    0.0000 C   0  0  0  0  0  0  0  0  0  0  0  0
   10.9750   -3.8509    0.0000 C   0  0  2  0  0  0  0  0  0  0  0  0
   10.8619   -4.6681    0.0000 O   0  0  0  0  0  0  0  0  0  0  0  0
   10.0976   -4.9787    0.0000 C   0  0  0  0  0  0  0  0  0  0  0  0
   10.3238   -3.3443    0.0000 C   0  0  1  0  0  0  0  0  0  0  0  0
    9.5596   -3.6549    0.0000 O   0  0  0  0  0  0  0  0  0  0  0  0
    8.9084   -3.1483    0.0000 C   0  0  1  0  0  0  0  0  0  0  0  0
    8.1441   -3.4590    0.0000 C   0  0  0  0  0  0  0  0  0  0  0  0
    7.4930   -2.9524    0.0000 C   0  0  2  0  0  0  0  0  0  0  0  0
    6.7287   -3.2630    0.0000 O   0  0  0  0  0  0  0  0  0  0  0  0
    6.6155   -4.0802    0.0000 C   0  0  0  0  0  0  0  0  0  0  0  0
    7.6061   -2.1352    0.0000 C   0  0  1  0  0  0  0  0  0  0  0  0
    6.9550   -1.6286    0.0000 O   0  0  0  0  0  0  0  0  0  0  0  0
    8.3704   -1.8246    0.0000 C   0  0  2  0  0  0  0  0  0  0  0  0
    8.4835   -1.0074    0.0000 C   0  0  0  0  0  0  0  0  0  0  0  0
    9.0215   -2.3311    0.0000 O   0  0  0  0  0  0  0  0  0  0  0  0
   10.4370   -2.5271    0.0000 C   0  0  2  0  0  0  0  0  0  0  0  0
    9.7858   -2.0205    0.0000 C   0  0  0  0  0  0  0  0  0  0  0  0
   11.2013   -2.2165    0.0000 O   0  0  0  0  0  0  0  0  0  0  0  0
   12.0787   -1.0887    0.0000 C   0  0  1  0  0  0  0  0  0  0  0  0
   11.3144   -1.3993    0.0000 C   0  0  0  0  0  0  0  0  0  0  0  0
   12.1918   -0.2715    0.0000 C   0  0  0  0  0  0  0  0  0  0  0  0
   11.5407    0.2351    0.0000 C   0  0  0  0  0  0  0  0  0  0  0  0
   11.6538    1.0523    0.0000 C   0  0  0  0  0  0  0  0  0  0  0  0
   11.0027    1.5589    0.0000 C   0  0  0  0  0  0  0  0  0  0  0  0
   10.1798    1.4997    0.0000 C   0  0  0  0  0  0  0  0  0  0  0  0
    9.8692    2.2640    0.0000 O   0  0  0  0  0  0  0  0  0  0  0  0
   10.5001    2.7956    0.0000 C   0  0  2  0  0  0  0  0  0  0  0  0
   10.5272    3.6201    0.0000 C   0  0  2  0  0  0  0  0  0  0  0  0
    9.8267    4.0559    0.0000 O   0  0  0  0  0  0  0  0  0  0  0  0
   11.2548    4.0089    0.0000 C   0  0  0  0  0  0  0  0  0  0  0  0
   11.2819    4.8335    0.0000 C   0  0  0  0  0  0  0  0  0  0  0  0
   11.9554    3.5732    0.0000 C   0  0  0  0  0  0  0  0  0  0  0  0
   11.8801    2.6867    0.0000 C   0  0  1  0  0  0  0  0  0  0  0  0
   12.5313    2.1802    0.0000 C   0  0  0  0  0  0  0  0  0  0  0  0
   12.4181    1.3630    0.0000 O   0  0  0  0  0  0  0  0  0  0  0  0
   13.2956    2.4908    0.0000 O   0  0  0  0  0  0  0  0  0  0  0  0
   11.1158    2.3761    0.0000 C   0  0  2  0  0  0  0  0  0  0  0  0
   11.2031    3.1965    0.0000 O   0  0  0  0  0  0  0  0  0  0  0  0
   15.2490    0.9710    0.0000 O   0  0  0  0  0  0  0  0  0  0  0  0
  1  2  1  0  0  0  0
  3  2  1  6  0  0  0
  3  4  1  0  0  0  0
  4  5  1  0  0  0  0
  5  6  1  0  0  0  0
  6  7  1  0  0  0  0
  7  8  1  6  0  0  0
  7  9  1  0  0  0  0
  3  9  1  0  0  0  0
  9 10  1  1  0  0  0
  5 11  1  1  0  0  0
 12 11  1  1  0  0  0
 12 13  1  0  0  0  0
 13 14  1  6  0  0  0
 13 15  1  0  0  0  0
 15 16  1  0  0  0  0
 16 17  1  0  0  0  0
 17 18  1  0  0  0  0
 12 18  1  0  0  0  0
 18 19  1  6  0  0  0
 19 20  1  0  0  0  0
 16 21  1  1  0  0  0
 22 21  1  1  0  0  0
 22 23  1  0  0  0  0
 23 24  1  1  0  0  0
 23 25  1  0  0  0  0
 25 26  2  0  0  0  0
 26 27  1  0  0  0  0
 27 28  2  0  0  0  0
 28 29  1  0  0  0  0
 29 30  1  0  0  0  0
 31 30  1  6  0  0  0
 31 32  1  0  0  0  0
 32 33  1  6  0  0  0
 32 34  1  0  0  0  0
 34 35  1  0  0  0  0
 34 36  2  0  0  0  0
 37 36  1  1  0  0  0
 37 38  1  0  0  0  0
 38 39  2  0  0  0  0
 38 40  1  0  0  0  0
 40 41  1  0  0  0  0
 41 42  1  6  0  0  0
 43 42  1  6  0  0  0
 43 44  1  0  0  0  0
 44 45  1  0  0  0  0
 45 46  2  0  0  0  0
 22 46  1  0  0  0  0
 46 47  1  0  0  0  0
 43 48  1  0  0  0  0
 49 48  1  6  0  0  0
 49 50  1  0  0  0  0
 50 51  1  0  0  0  0
 51 52  1  0  0  0  0
 52 53  1  6  0  0  0
 52 54  1  0  0  0  0
 54 55  1  0  0  0  0
 49 55  1  0  0  0  0
 54 56  1  1  0  0  0
 56 57  1  0  0  0  0
 56 58  1  0  0  0  0
 49 59  1  0  0  0  0
 41 59  1  0  0  0  0
 37 60  1  0  0  0  0
 28 60  1  0  0  0  0
 31 60  1  0  0  0  0
 60 61  1  1  0  0  0
 62 63  1  0  0  0  0
 63 64  1  0  0  0  0
 64 65  1  1  0  0  0
 66 64  1  1  0  0  0
 66 67  1  0  0  0  0
 68 67  1  1  0  0  0
 68 69  1  0  0  0  0
 69 70  1  0  0  0  0
 70 71  1  0  0  0  0
 66 71  1  0  0  0  0
 71 72  1  6  0  0  0
 68 73  1  0  0  0  0
 74 73  1  6  0  0  0
 74 75  1  0  0  0  0
 76 75  1  6  0  0  0
 76 77  1  0  0  0  0
 77 78  1  0  0  0  0
 78 79  2  0  0  0  0
 79 80  1  0  0  0  0
 79 81  1  0  0  0  0
 81 82  1  1  0  0  0
 83 82  1  1  0  0  0
 83 84  1  0  0  0  0
 84 85  1  0  0  0  0
 85 86  1  6  0  0  0
 86 87  1  0  0  0  0
 85 88  1  0  0  0  0
 88 89  1  1  0  0  0
 90 89  1  1  0  0  0
 90 91  1  0  0  0  0
 91 92  1  0  0  0  0
 92 93  1  6  0  0  0
 93 94  1  0  0  0  0
 92 95  1  0  0  0  0
 95 96  1  1  0  0  0
 95 97  1  0  0  0  0
 97 98  1  6  0  0  0
 97 99  1  0  0  0  0
 90 99  1  0  0  0  0
 88100  1  0  0  0  0
100101  1  6  0  0  0
100102  1  0  0  0  0
 83102  1  0  0  0  0
 81103  1  0  0  0  0
103104  1  1  0  0  0
103105  1  0  0  0  0
105106  2  0  0  0  0
106107  1  0  0  0  0
107108  2  0  0  0  0
108109  1  0  0  0  0
109110  1  0  0  0  0
111110  1  6  0  0  0
111112  1  0  0  0  0
112113  1  6  0  0  0
112114  1  0  0  0  0
114115  1  0  0  0  0
114116  2  0  0  0  0
117116  1  1  0  0  0
117118  1  0  0  0  0
118119  2  0  0  0  0
118120  1  0  0  0  0
 74120  1  0  0  0  0
117121  1  0  0  0  0
108121  1  0  0  0  0
111121  1  0  0  0  0
121122  1  1  0  0  0
 76123  1  0  0  0  0
 68123  1  0  0  0  0
M  END
> <DRUGBANK_ID>
DB00602

> <DRUG_GROUPS>
approved

> <GENERIC_NAME>
Ivermectin

> <SYNONYMS>
Ivermectin; Ivermectina; Ivermectine; Ivermectinum

> <BRANDS>
Ascapil; Detebencil; Ermetin; Gotax; Imectin; Ivectin; Ivera; Ivergot; Ivermec; Ivexterm; Ivori; Kaonol; Kilox; Maikeding; Quanox; Revectina; Scabo; Scavista; Securo; Sklice; Stromectol; Vermectin

> <CHEMICAL_FORMULA>
C95H146O28

> <MOLECULAR_WEIGHT>
1736.1589

> <EXACT_MASS>
1735.000064088

> <IUPAC_NAME>
(1'R,2R,4'S,5S,6R,8'R,12'S,13'S,20'R,21'R,24'S)-21',24'-dihydroxy-12'-{[(2R,4S,5S,6S)-5-{[(2S,4S,5S,6S)-5-hydroxy-4-methoxy-6-methyloxan-2-yl]oxy}-4-methoxy-6-methyloxan-2-yl]oxy}-5,11',13',22'-tetramethyl-6-(propan-2-yl)-3',7',19'-trioxaspiro[oxane-2,6'-tetracyclo[15.6.1.1^{4,8}.0^{20,24}]pentacosane]-10',14',16',22'-tetraen-2'-one; (1'R,2R,4'S,5S,6R,8'R,12'S,13'S,20'R,21'R,24'S)-6-[(2R)-butan-2-yl]-21',24'-dihydroxy-12'-{[(2R,4S,5S,6S)-5-{[(2S,4S,5S,6S)-5-hydroxy-4-methoxy-6-methyloxan-2-yl]oxy}-4-methoxy-6-methyloxan-2-yl]oxy}-5,11',13',22'-tetramethyl-3',7',19'-trioxaspiro[oxane-2,6'-tetracyclo[15.6.1.1^{4,8}.0^{20,24}]pentacosane]-10',14',16',22'-tetraen-2'-one

> <IUPAC_TRADITIONAL_NAME>
(1'R,2R,4'S,5S,6R,8'R,12'S,13'S,20'R,21'R,24'S)-21',24'-dihydroxy-12'-{[(2R,4S,5S,6S)-5-{[(2S,4S,5S,6S)-5-hydroxy-4-methoxy-6-methyloxan-2-yl]oxy}-4-methoxy-6-methyloxan-2-yl]oxy}-6-isopropyl-5,11',13',22'-tetramethyl-3',7',19'-trioxaspiro[oxane-2,6'-tetracyclo[15.6.1.1^{4,8}.0^{20,24}]pentacosane]-10',14',16',22'-tetraen-2'-one; (1'R,2R,4'S,5S,6R,8'R,12'S,13'S,20'R,21'R,24'S)-6-[(2R)-butan-2-yl]-21',24'-dihydroxy-12'-{[(2R,4S,5S,6S)-5-{[(2S,4S,5S,6S)-5-hydroxy-4-methoxy-6-methyloxan-2-yl]oxy}-4-methoxy-6-methyloxan-2-yl]oxy}-5,11',13',22'-tetramethyl-3',7',19'-trioxaspiro[oxane-2,6'-tetracyclo[15.6.1.1^{4,8}.0^{20,24}]pentacosane]-10',14',16',22'-tetraen-2'-one

> <INCHI_IDENTIFIER>
InChI=1S/C48H74O14.C47H72O14/c1-11-25(2)43-28(5)17-18-47(62-43)23-34-20-33(61-47)16-15-27(4)42(26(3)13-12-14-32-24-55-45-40(49)29(6)19-35(46(51)58-34)48(32,45)52)59-39-22-37(54-10)44(31(8)57-39)60-38-21-36(53-9)41(50)30(7)56-38;1-24(2)41-27(5)16-17-46(61-41)22-33-19-32(60-46)15-14-26(4)42(25(3)12-11-13-31-23-54-44-39(48)28(6)18-34(45(50)57-33)47(31,44)51)58-38-21-36(53-10)43(30(8)56-38)59-37-20-35(52-9)40(49)29(7)55-37/h12-15,19,25-26,28,30-31,33-45,49-50,52H,11,16-18,20-24H2,1-10H3;11-14,18,24-25,27,29-30,32-44,48-49,51H,15-17,19-23H2,1-10H3/b13-12+,27-15+,32-14+;12-11+,26-14+,31-13+/t25-,26+,28+,30+,31+,33-,34+,35+,36+,37+,38+,39+,40-,41+,42+,43-,44+,45-,47-,48-;25-,27-,29-,30-,32+,33-,34-,35-,36-,37-,38-,39+,40-,41+,42-,43-,44+,46+,47+/m10/s1

> <INCHI_KEY>
InChIKey=SPBDXSGPUHCETR-CVSKBELMSA-N

> <SMILES>
CO[C@H]1C[C@@H](O[C@@H](C)[C@@H]1O)O[C@H]1[C@H](C)O[C@H](C[C@@H]1OC)O[C@H]1[C@@H](C)\C=C\C=C2/CO[C@@H]3[C@H](O)C(C)=C[C@@H](C(=O)O[C@H]4C[C@@H](C\C=C1/C)O[C@@]1(CC[C@H](C)[C@@H](C(C)C)O1)C4)[C@]23O.CC[C@@H](C)[C@H]1O[C@@]2(CC[C@@H]1C)O[C@@H]1C\C=C(C)\[C@@H](O[C@@H]3O[C@@H](C)[C@H](O[C@@H]4O[C@@H](C)[C@H](O)[C@@H](OC)C4)[C@@H](OC)C3)[C@@H](C)\C=C\C=C3/CO[C@@H]4[C@H](O)C(C)=C[C@@H](C(=O)O[C@@H](C1)C2)[C@]34O

> <JCHEM_ACCEPTOR_COUNT>
13

> <JCHEM_DONOR_COUNT>
3

> <JCHEM_ACIDIC_PKA>
12.47

> <JCHEM_BASIC_PKA>
-3.4

> <JCHEM_PHYSIOLOGICAL_CHARGE>
0

> <JCHEM_LOGP>
5.83

> <JCHEM_POLARIZABILITY>
96.87

> <JCHEM_POLAR_SURFACE_AREA>
170.06

> <JCHEM_REFRACTIVITY>
230.33

> <JCHEM_ROTATABLE_BOND_COUNT>
15 __ 

$$$$
