288
  Mrv0541 02231214342D          

 39 44  0  0  1  0            999 V2000
    6.7264    1.4552    0.0000 F   0  0  0  0  0  0  0  0  0  0  0  0
    4.1610   -0.7835    0.0000 O   0  0  0  0  0  0  0  0  0  0  0  0
    4.6989   -1.9889    0.0000 O   0  0  0  0  0  0  0  0  0  0  0  0
    6.2941    1.9174    0.0000 O   0  0  0  0  0  0  0  0  0  0  0  0
    4.3396    0.7204    0.0000 O   0  0  0  0  0  0  0  0  0  0  0  0
    3.0240    0.2902    0.0000 O   0  0  0  0  0  0  0  0  0  0  0  0
    9.9851    2.4490    0.0000 O   0  0  0  0  0  0  0  0  0  0  0  0
    1.9969   -0.7033    0.0000 O   0  0  0  0  0  0  0  0  0  0  0  0
    5.5796   -0.1451    0.0000 C   0  0  1  0  0  0  0  0  0  0  0  0
    6.2941   -0.5576    0.0000 C   0  0  2  0  0  0  0  0  0  0  0  0
    4.9715   -0.6955    0.0000 C   0  0  1  0  0  0  0  0  0  0  0  0
    7.0086   -0.1451    0.0000 C   0  0  1  0  0  0  0  0  0  0  0  0
    5.3057   -1.4444    0.0000 C   0  0  1  0  0  0  0  0  0  0  0  0
    7.0086    0.6799    0.0000 C   0  0  1  0  0  0  0  0  0  0  0  0
    6.1215   -1.3594    0.0000 C   0  0  0  0  0  0  0  0  0  0  0  0
    5.5796    0.6799    0.0000 C   0  0  0  0  0  0  0  0  0  0  0  0
    6.2941    1.0924    0.0000 C   0  0  2  0  0  0  0  0  0  0  0  0
    7.7460    1.1209    0.0000 C   0  0  1  0  0  0  0  0  0  0  0  0
    7.7460   -0.5863    0.0000 C   0  0  0  0  0  0  0  0  0  0  0  0
    5.0492    0.4868    0.0000 C   0  0  0  0  0  0  0  0  0  0  0  0
    3.9929   -1.5813    0.0000 C   0  0  0  0  0  0  0  0  0  0  0  0
    4.3979   -0.1025    0.0000 C   0  0  0  0  0  0  0  0  0  0  0  0
    8.4936   -0.1623    0.0000 C   0  0  0  0  0  0  0  0  0  0  0  0
    8.4936    0.6971    0.0000 C   0  0  0  0  0  0  0  0  0  0  0  0
    3.8220   -2.3884    0.0000 C   0  0  0  0  0  0  0  0  0  0  0  0
    3.2781   -1.1694    0.0000 C   0  0  0  0  0  0  0  0  0  0  0  0
    7.2108    1.7489    0.0000 C   0  0  0  0  0  0  0  0  0  0  0  0
    7.7253    2.0158    0.0000 C   0  0  0  0  0  0  0  0  0  0  0  0
    3.0016   -2.4754    0.0000 C   0  0  0  0  0  0  0  0  0  0  0  0
    2.6654   -1.7220    0.0000 C   0  0  0  0  0  0  0  0  0  0  0  0
    3.5975   -0.3028    0.0000 C   0  0  0  0  0  0  0  0  0  0  0  0
    9.2722    1.1386    0.0000 C   0  0  0  0  0  0  0  0  0  0  0  0
    8.4936    2.4754    0.0000 C   0  0  0  0  0  0  0  0  0  0  0  0
    9.2722    2.0337    0.0000 C   0  0  0  0  0  0  0  0  0  0  0  0
    2.2237    0.0899    0.0000 C   0  0  0  0  0  0  0  0  0  0  0  0
    1.6500    0.6829    0.0000 C   0  0  0  0  0  0  0  0  0  0  0  0
    6.8275   -0.9463    0.0000 H   0  0  0  0  0  0  0  0  0  0  0  0
    7.0034   -0.8051    0.0000 H   0  0  0  0  0  0  0  0  0  0  0  0
    5.5734   -2.0477    0.0000 H   0  0  0  0  0  0  0  0  0  0  0  0
 14  1  1  1  0  0  0
  2 11  1  0  0  0  0
  2 21  1  0  0  0  0
  3 13  1  0  0  0  0
  3 21  1  0  0  0  0
 17  4  1  6  0  0  0
  5 22  2  0  0  0  0
  6 31  1  0  0  0  0
  6 35  1  0  0  0  0
  7 34  2  0  0  0  0
  8 35  2  0  0  0  0
  9 10  1  0  0  0  0
  9 11  1  0  0  0  0
  9 16  1  0  0  0  0
  9 20  1  6  0  0  0
 10 12  1  0  0  0  0
 10 15  1  0  0  0  0
 10 37  1  1  0  0  0
 11 13  1  0  0  0  0
 11 22  1  6  0  0  0
 12 14  1  0  0  0  0
 12 19  1  0  0  0  0
 12 38  1  6  0  0  0
 13 15  1  0  0  0  0
 13 39  1  6  0  0  0
 14 17  1  0  0  0  0
 14 18  1  0  0  0  0
 16 17  1  0  0  0  0
 18 24  1  0  0  0  0
 18 27  1  6  0  0  0
 18 28  1  0  0  0  0
 19 23  1  0  0  0  0
 21 25  1  0  0  0  0
 21 26  1  0  0  0  0
 22 31  1  0  0  0  0
 23 24  1  0  0  0  0
 24 32  2  0  0  0  0
 25 29  1  0  0  0  0
 26 30  1  0  0  0  0
 28 33  2  0  0  0  0
 29 30  1  0  0  0  0
 32 34  1  0  0  0  0
 33 34  1  0  0  0  0
 35 36  1  0  0  0  0
M  END
> <DRUGBANK_ID>
DB00288

> <DRUG_GROUPS>
approved

> <GENERIC_NAME>
Amcinonide

> <SYNONYMS>
Triamcinolonacetatcyclopentanonid

> <BRANDS>
Cyclocort

> <CHEMICAL_FORMULA>
C28H35FO7

> <MOLECULAR_WEIGHT>
502.5717

> <EXACT_MASS>
502.236681679

> <IUPAC_NAME>
2-[(1'S,2'S,4'R,8'S,9'S,11'S,12'R,13'S)-12'-fluoro-11'-hydroxy-9',13'-dimethyl-16'-oxo-5',7'-dioxaspiro[cyclopentane-1,6'-pentacyclo[10.8.0.0^{2,9}.0^{4,8}.0^{13,18}]icosane]-14',17'-dien-8'-yl]-2-oxoethyl acetate

> <IUPAC_TRADITIONAL_NAME>
amcinonide

> <INCHI_IDENTIFIER>
InChI=1S/C28H35FO7/c1-16(30)34-15-22(33)28-23(35-26(36-28)9-4-5-10-26)13-20-19-7-6-17-12-18(31)8-11-24(17,2)27(19,29)21(32)14-25(20,28)3/h8,11-12,19-21,23,32H,4-7,9-10,13-15H2,1-3H3/t19-,20-,21-,23+,24-,25-,27-,28+/m0/s1

> <INCHI_KEY>
InChIKey=ILKJAFIWWBXGDU-MOGDOJJUSA-N

> <SMILES>
[H][C@@]12C[C@@]3([H])[C@]4([H])CCC5=CC(=O)C=C[C@]5(C)[C@@]4(F)[C@@H](O)C[C@]3(C)[C@@]1(OC1(CCCC1)O2)C(=O)COC(C)=O

> <JCHEM_ACCEPTOR_COUNT>
6

> <JCHEM_DONOR_COUNT>
1

> <JCHEM_ACIDIC_PKA>
13.63

> <JCHEM_BASIC_PKA>
-3.4

> <JCHEM_PHYSIOLOGICAL_CHARGE>
0

> <ALOGPS_LOGP>
3.16

> <JCHEM_LOGP>
3.2

> <ALOGPS_LOGS>
-4.8

> <JCHEM_POLARIZABILITY>
52.23

> <JCHEM_POLAR_SURFACE_AREA>
99.13

> <JCHEM_REFRACTIVITY>
127.88

> <JCHEM_ROTATABLE_BOND_COUNT>
4

> <ALOGPS_SOLUBILITY>
7.74e-03 g/l __ 

$$$$
