638
  Mrv0541 02231214502D          

419456  0  0  1  0            999 V2000
    8.4235    0.1973    0.0000 O   0  0  0  0  0  0  0  0  0  0  0  0
    8.6343   -1.5827    0.0000 O   0  0  0  0  0  0  0  0  0  0  0  0
    8.3845    1.9893    0.0000 O   0  0  0  0  0  0  0  0  0  0  0  0
    8.6732   -3.3748    0.0000 O   0  0  0  0  0  0  0  0  0  0  0  0
    8.1737    3.7693    0.0000 O   0  0  0  0  0  0  0  0  0  0  0  0
    9.0511   -5.1283    0.0000 O   0  0  0  0  0  0  0  0  0  0  0  0
    8.1348    5.5613    0.0000 O   0  0  0  0  0  0  0  0  0  0  0  0
    7.9238    7.3413    0.0000 O   0  0  0  0  0  0  0  0  0  0  0  0
    9.4005   -6.8864    0.0000 O   0  0  0  0  0  0  0  0  0  0  0  0
    7.8850    9.1333    0.0000 O   0  0  0  0  0  0  0  0  0  0  0  0
    9.9173   -8.6027    0.0000 O   0  0  0  0  0  0  0  0  0  0  0  0
    7.6741   10.9133    0.0000 O   0  0  0  0  0  0  0  0  0  0  0  0
   10.2668  -10.3608    0.0000 O   0  0  0  0  0  0  0  0  0  0  0  0
    7.6352   12.7053    0.0000 O   0  0  0  0  0  0  0  0  0  0  0  0
   10.7836  -12.0771    0.0000 O   0  0  0  0  0  0  0  0  0  0  0  0
   11.1331  -13.8351    0.0000 O   0  0  0  0  0  0  0  0  0  0  0  0
    7.4243   14.4853    0.0000 O   0  0  0  0  0  0  0  0  0  0  0  0
   11.6499  -15.5515    0.0000 O   0  0  0  0  0  0  0  0  0  0  0  0
    7.3854   16.2773    0.0000 O   0  0  0  0  0  0  0  0  0  0  0  0
   11.9994  -17.3095    0.0000 O   0  0  0  0  0  0  0  0  0  0  0  0
    9.5858    0.0955    0.0000 O   0  0  0  0  0  0  0  0  0  0  0  0
    7.4044   -0.5136    0.0000 O   0  0  0  0  0  0  0  0  0  0  0  0
    7.1546    3.0584    0.0000 O   0  0  0  0  0  0  0  0  0  0  0  0
    9.8355   -3.4765    0.0000 O   0  0  0  0  0  0  0  0  0  0  0  0
    9.2429    4.9992    0.0000 O   0  0  0  0  0  0  0  0  0  0  0  0
    7.9771   -5.5842    0.0000 O   0  0  0  0  0  0  0  0  0  0  0  0
    6.9049    6.6305    0.0000 O   0  0  0  0  0  0  0  0  0  0  0  0
    7.1746   18.0573    0.0000 O   0  0  0  0  0  0  0  0  0  0  0  0
   10.5629   -6.7846    0.0000 O   0  0  0  0  0  0  0  0  0  0  0  0
    8.9931    8.5712    0.0000 O   0  0  0  0  0  0  0  0  0  0  0  0
    8.8433   -9.0586    0.0000 O   0  0  0  0  0  0  0  0  0  0  0  0
    6.6550   10.2025    0.0000 O   0  0  0  0  0  0  0  0  0  0  0  0
   11.4291  -10.2591    0.0000 O   0  0  0  0  0  0  0  0  0  0  0  0
    8.7432   12.1433    0.0000 O   0  0  0  0  0  0  0  0  0  0  0  0
    9.7096  -12.5330    0.0000 O   0  0  0  0  0  0  0  0  0  0  0  0
    6.4052   13.7746    0.0000 O   0  0  0  0  0  0  0  0  0  0  0  0
   12.2954  -13.7335    0.0000 O   0  0  0  0  0  0  0  0  0  0  0  0
    8.4935   15.7153    0.0000 O   0  0  0  0  0  0  0  0  0  0  0  0
   10.5759  -16.0074    0.0000 O   0  0  0  0  0  0  0  0  0  0  0  0
   12.5162  -19.0258    0.0000 O   0  0  0  0  0  0  0  0  0  0  0  0
    6.2486   16.0149    0.0000 O   0  0  0  0  0  0  0  0  0  0  0  0
    7.1357   19.8494    0.0000 O   0  0  0  0  0  0  0  0  0  0  0  0
   12.8387  -15.9126    0.0000 O   0  0  0  0  0  0  0  0  0  0  0  0
    8.3368   17.9557    0.0000 O   0  0  0  0  0  0  0  0  0  0  0  0
   11.4421  -19.4817    0.0000 O   0  0  0  0  0  0  0  0  0  0  0  0
   12.8656  -20.7839    0.0000 O   0  0  0  0  0  0  0  0  0  0  0  0
    6.9247   21.6294    0.0000 O   0  0  0  0  0  0  0  0  0  0  0  0
    5.9988   19.5869    0.0000 O   0  0  0  0  0  0  0  0  0  0  0  0
   13.7050  -19.3869    0.0000 O   0  0  0  0  0  0  0  0  0  0  0  0
   13.3824  -22.5002    0.0000 O   0  0  0  0  0  0  0  0  0  0  0  0
    8.0870   21.5277    0.0000 O   0  0  0  0  0  0  0  0  0  0  0  0
   11.9855  -21.6609    0.0000 O   0  0  0  0  0  0  0  0  0  0  0  0
    6.8859   23.4215    0.0000 O   0  0  0  0  0  0  0  0  0  0  0  0
    5.7490   23.1589    0.0000 O   0  0  0  0  0  0  0  0  0  0  0  0
   14.5712  -22.8613    0.0000 O   0  0  0  0  0  0  0  0  0  0  0  0
   13.7319  -24.2583    0.0000 O   0  0  0  0  0  0  0  0  0  0  0  0
    6.4343   25.2659    0.0000 O   0  0  0  0  0  0  0  0  0  0  0  0
    7.2737   26.6628    0.0000 O   0  0  0  0  0  0  0  0  0  0  0  0
   12.8517  -25.1353    0.0000 O   0  0  0  0  0  0  0  0  0  0  0  0
   14.2487  -25.9746    0.0000 O   0  0  0  0  0  0  0  0  0  0  0  0
    6.0849   27.0239    0.0000 O   0  0  0  0  0  0  0  0  0  0  0  0
    5.0109   26.5681    0.0000 O   0  0  0  0  0  0  0  0  0  0  0  0
   15.4375  -26.3358    0.0000 O   0  0  0  0  0  0  0  0  0  0  0  0
   14.5981  -27.7327    0.0000 O   0  0  0  0  0  0  0  0  0  0  0  0
    5.5681   28.7403    0.0000 O   0  0  0  0  0  0  0  0  0  0  0  0
    9.6075    2.2442    0.0000 O   0  0  0  0  0  0  0  0  0  0  0  0
    7.3827   -2.6622    0.0000 O   0  0  0  0  0  0  0  0  0  0  0  0
    7.5568    0.9619    0.0000 O   0  0  0  0  0  0  0  0  0  0  0  0
    9.4334   -1.3798    0.0000 O   0  0  0  0  0  0  0  0  0  0  0  0
    9.5635    2.8745    0.0000 O   0  0  0  0  0  0  0  0  0  0  0  0
    7.5679   -3.4685    0.0000 O   0  0  0  0  0  0  0  0  0  0  0  0
    7.3070    4.5339    0.0000 O   0  0  0  0  0  0  0  0  0  0  0  0
    9.8027   -4.7897    0.0000 O   0  0  0  0  0  0  0  0  0  0  0  0
    8.8866    6.4391    0.0000 O   0  0  0  0  0  0  0  0  0  0  0  0
    8.5780   -6.9403    0.0000 O   0  0  0  0  0  0  0  0  0  0  0  0
    7.0572    8.1059    0.0000 O   0  0  0  0  0  0  0  0  0  0  0  0
   10.6690   -8.2642    0.0000 O   0  0  0  0  0  0  0  0  0  0  0  0
    8.6368   10.0111    0.0000 O   0  0  0  0  0  0  0  0  0  0  0  0
    9.4443  -10.4147    0.0000 O   0  0  0  0  0  0  0  0  0  0  0  0
    6.8074   11.6779    0.0000 O   0  0  0  0  0  0  0  0  0  0  0  0
   11.5353  -11.7386    0.0000 O   0  0  0  0  0  0  0  0  0  0  0  0
    8.3870   13.5832    0.0000 O   0  0  0  0  0  0  0  0  0  0  0  0
   10.3105  -13.8891    0.0000 O   0  0  0  0  0  0  0  0  0  0  0  0
    6.3551   18.1471    0.0000 O   0  0  0  0  0  0  0  0  0  0  0  0
   13.1041  -18.0308    0.0000 O   0  0  0  0  0  0  0  0  0  0  0  0
    6.7304   28.8419    0.0000 O   0  0  0  0  0  0  0  0  0  0  0  0
   13.7180  -28.6096    0.0000 O   0  0  0  0  0  0  0  0  0  0  0  0
    7.9346   20.0523    0.0000 O   0  0  0  0  0  0  0  0  0  0  0  0
   11.1767  -17.3635    0.0000 O   0  0  0  0  0  0  0  0  0  0  0  0
    6.1053   21.7191    0.0000 O   0  0  0  0  0  0  0  0  0  0  0  0
   13.9703  -21.5053    0.0000 O   0  0  0  0  0  0  0  0  0  0  0  0
    8.1088   23.6764    0.0000 O   0  0  0  0  0  0  0  0  0  0  0  0
   12.7456  -23.6558    0.0000 O   0  0  0  0  0  0  0  0  0  0  0  0
   15.1150  -29.4490    0.0000 O   0  0  0  0  0  0  0  0  0  0  0  0
   10.9252    1.7580    0.0000 O   0  0  0  0  0  0  0  0  0  0  0  0
    6.0650   -2.1759    0.0000 O   0  0  0  0  0  0  0  0  0  0  0  0
    5.8152    1.3961    0.0000 O   0  0  0  0  0  0  0  0  0  0  0  0
   11.1749   -1.8141    0.0000 O   0  0  0  0  0  0  0  0  0  0  0  0
   10.8006    3.5394    0.0000 O   0  0  0  0  0  0  0  0  0  0  0  0
    6.1896   -4.4171    0.0000 O   0  0  0  0  0  0  0  0  0  0  0  0
    5.5654    4.9681    0.0000 O   0  0  0  0  0  0  0  0  0  0  0  0
   11.5933   -4.9150    0.0000 O   0  0  0  0  0  0  0  0  0  0  0  0
   10.5508    7.1114    0.0000 O   0  0  0  0  0  0  0  0  0  0  0  0
    7.0558   -7.8915    0.0000 O   0  0  0  0  0  0  0  0  0  0  0  0
    5.3156    8.5401    0.0000 O   0  0  0  0  0  0  0  0  0  0  0  0
   12.4596   -8.3894    0.0000 O   0  0  0  0  0  0  0  0  0  0  0  0
   10.3011   10.6835    0.0000 O   0  0  0  0  0  0  0  0  0  0  0  0
    7.9221  -11.3658    0.0000 O   0  0  0  0  0  0  0  0  0  0  0  0
    5.0659   12.1121    0.0000 O   0  0  0  0  0  0  0  0  0  0  0  0
   13.3257  -11.8637    0.0000 O   0  0  0  0  0  0  0  0  0  0  0  0
   10.0512   14.2555    0.0000 O   0  0  0  0  0  0  0  0  0  0  0  0
    8.7884  -14.8402    0.0000 O   0  0  0  0  0  0  0  0  0  0  0  0
    4.6909   17.4747    0.0000 O   0  0  0  0  0  0  0  0  0  0  0  0
   14.6262  -17.0797    0.0000 O   0  0  0  0  0  0  0  0  0  0  0  0
    9.6763   19.6180    0.0000 O   0  0  0  0  0  0  0  0  0  0  0  0
    9.6546  -18.3147    0.0000 O   0  0  0  0  0  0  0  0  0  0  0  0
    5.8555   25.2911    0.0000 O   0  0  0  0  0  0  0  0  0  0  0  0
   14.8366  -24.9796    0.0000 O   0  0  0  0  0  0  0  0  0  0  0  0
    4.4411   21.0467    0.0000 O   0  0  0  0  0  0  0  0  0  0  0  0
   15.4925  -20.5541    0.0000 O   0  0  0  0  0  0  0  0  0  0  0  0
    9.4264   23.1901    0.0000 O   0  0  0  0  0  0  0  0  0  0  0  0
   10.9550  -23.5306    0.0000 O   0  0  0  0  0  0  0  0  0  0  0  0
    5.2187   30.4983    0.0000 O   0  0  0  0  0  0  0  0  0  0  0  0
    7.9584   24.6261    0.0000 O   0  0  0  0  0  0  0  0  0  0  0  0
   13.6119  -27.1302    0.0000 O   0  0  0  0  0  0  0  0  0  0  0  0
    4.1913   24.6187    0.0000 O   0  0  0  0  0  0  0  0  0  0  0  0
   16.3588  -24.0284    0.0000 O   0  0  0  0  0  0  0  0  0  0  0  0
    9.0613   25.4957    0.0000 O   0  0  0  0  0  0  0  0  0  0  0  0
   11.8213  -27.0049    0.0000 O   0  0  0  0  0  0  0  0  0  0  0  0
    4.1447   30.0424    0.0000 O   0  0  0  0  0  0  0  0  0  0  0  0
   16.3037  -29.8101    0.0000 O   0  0  0  0  0  0  0  0  0  0  0  0
    4.7455   28.6863    0.0000 O   0  0  0  0  0  0  0  0  0  0  0  0
   15.7029  -28.4540    0.0000 O   0  0  0  0  0  0  0  0  0  0  0  0
    3.2234   27.7352    0.0000 O   0  0  0  0  0  0  0  0  0  0  0  0
   17.2250  -27.5028    0.0000 O   0  0  0  0  0  0  0  0  0  0  0  0
   15.4644  -31.2070    0.0000 O   0  0  0  0  0  0  0  0  0  0  0  0
    5.9703   30.8369    0.0000 O   0  0  0  0  0  0  0  0  0  0  0  0
   14.4781  -30.6046    0.0000 O   0  0  0  0  0  0  0  0  0  0  0  0
   11.7788    0.3548    0.0000 O   0  0  0  0  0  0  0  0  0  0  0  0
    5.9685    0.4391    0.0000 O   0  0  0  0  0  0  0  0  0  0  0  0
    5.7188    4.0112    0.0000 O   0  0  0  0  0  0  0  0  0  0  0  0
   12.0286   -3.2173    0.0000 O   0  0  0  0  0  0  0  0  0  0  0  0
   10.5321    6.1425    0.0000 O   0  0  0  0  0  0  0  0  0  0  0  0
    5.8113   -6.0154    0.0000 O   0  0  0  0  0  0  0  0  0  0  0  0
    5.4690    7.5832    0.0000 O   0  0  0  0  0  0  0  0  0  0  0  0
   12.6776   -6.1486    0.0000 O   0  0  0  0  0  0  0  0  0  0  0  0
   10.2823    9.7145    0.0000 O   0  0  0  0  0  0  0  0  0  0  0  0
    6.6776   -9.4898    0.0000 O   0  0  0  0  0  0  0  0  0  0  0  0
    5.2193   11.1552    0.0000 O   0  0  0  0  0  0  0  0  0  0  0  0
   13.5439   -9.6230    0.0000 O   0  0  0  0  0  0  0  0  0  0  0  0
    7.7608   30.7117    0.0000 O   0  0  0  0  0  0  0  0  0  0  0  0
   10.0325   13.2865    0.0000 O   0  0  0  0  0  0  0  0  0  0  0  0
    7.5438  -12.9641    0.0000 O   0  0  0  0  0  0  0  0  0  0  0  0
    4.7019   32.2146    0.0000 O   0  0  0  0  0  0  0  0  0  0  0  0
    4.9694   14.7272    0.0000 O   0  0  0  0  0  0  0  0  0  0  0  0
   14.4102  -13.0974    0.0000 O   0  0  0  0  0  0  0  0  0  0  0  0
   12.6876  -30.4793    0.0000 O   0  0  0  0  0  0  0  0  0  0  0  0
    9.7828   16.8585    0.0000 O   0  0  0  0  0  0  0  0  0  0  0  0
    8.4101  -16.4386    0.0000 O   0  0  0  0  0  0  0  0  0  0  0  0
    4.0408   15.9664    0.0000 O   0  0  0  0  0  0  0  0  0  0  0  0
   13.9099  -14.5629    0.0000 O   0  0  0  0  0  0  0  0  0  0  0  0
   10.5299   18.2149    0.0000 O   0  0  0  0  0  0  0  0  0  0  0  0
    9.2763  -19.9130    0.0000 O   0  0  0  0  0  0  0  0  0  0  0  0
    3.7911   19.5384    0.0000 O   0  0  0  0  0  0  0  0  0  0  0  0
   14.7761  -18.0372    0.0000 O   0  0  0  0  0  0  0  0  0  0  0  0
   10.2801   21.7869    0.0000 O   0  0  0  0  0  0  0  0  0  0  0  0
   10.4060  -20.9720    0.0000 O   0  0  0  0  0  0  0  0  0  0  0  0
    3.5412   23.1104    0.0000 O   0  0  0  0  0  0  0  0  0  0  0  0
   15.6424  -21.5116    0.0000 O   0  0  0  0  0  0  0  0  0  0  0  0
    3.8793   32.1607    0.0000 O   0  0  0  0  0  0  0  0  0  0  0  0
   16.5692  -31.9284    0.0000 O   0  0  0  0  0  0  0  0  0  0  0  0
    8.3449   28.0125    0.0000 O   0  0  0  0  0  0  0  0  0  0  0  0
   11.2723  -24.4464    0.0000 O   0  0  0  0  0  0  0  0  0  0  0  0
    5.8642   32.3163    0.0000 O   0  0  0  0  0  0  0  0  0  0  0  0
    2.3571   31.2096    0.0000 O   0  0  0  0  0  0  0  0  0  0  0  0
   18.0913  -30.9772    0.0000 O   0  0  0  0  0  0  0  0  0  0  0  0
    2.8451   26.1368    0.0000 O   0  0  0  0  0  0  0  0  0  0  0  0
   16.5087  -24.9860    0.0000 O   0  0  0  0  0  0  0  0  0  0  0  0
   16.1788  -32.4445    0.0000 O   0  0  0  0  0  0  0  0  0  0  0  0
    8.8451   29.4780    0.0000 O   0  0  0  0  0  0  0  0  0  0  0  0
   12.1385  -27.9208    0.0000 O   0  0  0  0  0  0  0  0  0  0  0  0
    5.1040   34.3112    0.0000 O   0  0  0  0  0  0  0  0  0  0  0  0
    1.9788   29.6113    0.0000 O   0  0  0  0  0  0  0  0  0  0  0  0
   18.4696  -29.3789    0.0000 O   0  0  0  0  0  0  0  0  0  0  0  0
   14.0354  -32.0320    0.0000 O   0  0  0  0  0  0  0  0  0  0  0  0
    6.8945   34.1861    0.0000 O   0  0  0  0  0  0  0  0  0  0  0  0
   14.0354  -33.6821    0.0000 O   0  0  0  0  0  0  0  0  0  0  0  0
   15.4644  -34.5071    0.0000 O   0  0  0  0  0  0  0  0  0  0  0  0
    4.3524   33.9727    0.0000 O   0  0  0  0  0  0  0  0  0  0  0  0
    7.9789   32.9524    0.0000 O   0  0  0  0  0  0  0  0  0  0  0  0
   16.8934  -34.5071    0.0000 O   0  0  0  0  0  0  0  0  0  0  0  0
    9.0554    0.7276    0.0000 C   0  0  2  0  0  0  0  0  0  0  0  0
    7.9347   -1.1455    0.0000 C   0  0  2  0  0  0  0  0  0  0  0  0
    7.6849    2.4265    0.0000 C   0  0  2  0  0  0  0  0  0  0  0  0
    9.3053   -2.8444    0.0000 C   0  0  2  0  0  0  0  0  0  0  0  0
    8.8056    4.2996    0.0000 C   0  0  2  0  0  0  0  0  0  0  0  0
    8.2862   -4.8193    0.0000 C   0  0  2  0  0  0  0  0  0  0  0  0
    7.4351    5.9985    0.0000 C   0  0  2  0  0  0  0  0  0  0  0  0
    9.9309   -6.2544    0.0000 C   0  0  2  0  0  0  0  0  0  0  0  0
    8.5559    7.8716    0.0000 C   0  0  2  0  0  0  0  0  0  0  0  0
    9.1525   -8.2936    0.0000 C   0  0  2  0  0  0  0  0  0  0  0  0
    7.1854    9.5705    0.0000 C   0  0  2  0  0  0  0  0  0  0  0  0
   10.7971   -9.7287    0.0000 C   0  0  2  0  0  0  0  0  0  0  0  0
    8.3061   11.4436    0.0000 C   0  0  2  0  0  0  0  0  0  0  0  0
   10.0186  -11.7680    0.0000 C   0  0  2  0  0  0  0  0  0  0  0  0
    6.9355   13.1425    0.0000 C   0  0  2  0  0  0  0  0  0  0  0  0
   11.6634  -13.2031    0.0000 C   0  0  2  0  0  0  0  0  0  0  0  0
    8.0563   15.0156    0.0000 C   0  0  2  0  0  0  0  0  0  0  0  0
   10.8849  -15.2424    0.0000 C   0  0  2  0  0  0  0  0  0  0  0  0
    6.6858   16.7146    0.0000 C   0  0  2  0  0  0  0  0  0  0  0  0
   12.5297  -16.6775    0.0000 C   0  0  2  0  0  0  0  0  0  0  0  0
    7.8065   18.5877    0.0000 C   0  0  2  0  0  0  0  0  0  0  0  0
   11.7512  -18.7168    0.0000 C   0  0  2  0  0  0  0  0  0  0  0  0
    6.4360   20.2866    0.0000 C   0  0  2  0  0  0  0  0  0  0  0  0
   13.3960  -20.1519    0.0000 C   0  0  2  0  0  0  0  0  0  0  0  0
    7.5568   22.1597    0.0000 C   0  0  2  0  0  0  0  0  0  0  0  0
   12.6175  -22.1912    0.0000 C   0  0  2  0  0  0  0  0  0  0  0  0
    6.1863   23.8586    0.0000 C   0  0  2  0  0  0  0  0  0  0  0  0
   14.2621  -23.6263    0.0000 C   0  0  1  0  0  0  0  0  0  0  0  0
    9.4926    1.4272    0.0000 C   0  0  2  0  0  0  0  0  0  0  0  0
    7.4975   -1.8452    0.0000 C   0  0  2  0  0  0  0  0  0  0  0  0
    7.2477    1.7269    0.0000 C   0  0  2  0  0  0  0  0  0  0  0  0
    9.7424   -2.1448    0.0000 C   0  0  2  0  0  0  0  0  0  0  0  0
    9.3359    3.6676    0.0000 C   0  0  2  0  0  0  0  0  0  0  0  0
    7.6541   -4.2890    0.0000 C   0  0  2  0  0  0  0  0  0  0  0  0
    6.9979    5.2989    0.0000 C   0  0  2  0  0  0  0  0  0  0  0  0
   10.2399   -5.4894    0.0000 C   0  0  2  0  0  0  0  0  0  0  0  0
    9.0862    7.2396    0.0000 C   0  0  2  0  0  0  0  0  0  0  0  0
    8.5204   -7.7634    0.0000 C   0  0  2  0  0  0  0  0  0  0  0  0
    6.7482    8.8709    0.0000 C   0  0  2  0  0  0  0  0  0  0  0  0
   11.1062   -8.9638    0.0000 C   0  0  2  0  0  0  0  0  0  0  0  0
    8.8364   10.8117    0.0000 C   0  0  2  0  0  0  0  0  0  0  0  0
    9.3867  -11.2377    0.0000 C   0  0  2  0  0  0  0  0  0  0  0  0
    6.4984   12.4429    0.0000 C   0  0  2  0  0  0  0  0  0  0  0  0
   11.9725  -12.4382    0.0000 C   0  0  2  0  0  0  0  0  0  0  0  0
    8.5867   14.3837    0.0000 C   0  0  2  0  0  0  0  0  0  0  0  0
   10.2530  -14.7121    0.0000 C   0  0  2  0  0  0  0  0  0  0  0  0
    6.1555   17.3466    0.0000 C   0  0  2  0  0  0  0  0  0  0  0  0
   13.1617  -17.2078    0.0000 C   0  0  2  0  0  0  0  0  0  0  0  0
    8.2437   19.2874    0.0000 C   0  0  2  0  0  0  0  0  0  0  0  0
   11.1192  -18.1864    0.0000 C   0  0  2  0  0  0  0  0  0  0  0  0
    5.9057   20.9186    0.0000 C   0  0  2  0  0  0  0  0  0  0  0  0
   14.0279  -20.6822    0.0000 C   0  0  2  0  0  0  0  0  0  0  0  0
    6.9647   25.8979    0.0000 C   0  0  2  0  0  0  0  0  0  0  0  0
   13.4837  -25.6656    0.0000 C   0  0  1  0  0  0  0  0  0  0  0  0
    7.9940   22.8594    0.0000 C   0  0  2  0  0  0  0  0  0  0  0  0
   12.3084  -22.9561    0.0000 C   0  0  2  0  0  0  0  0  0  0  0  0
    8.5667   -0.6152    0.0000 C   0  0  0  0  0  0  0  0  0  0  0  0
    8.3558    1.1648    0.0000 C   0  0  0  0  0  0  0  0  0  0  0  0
    8.6056   -2.4072    0.0000 C   0  0  0  0  0  0  0  0  0  0  0  0
    8.3169    2.9568    0.0000 C   0  0  0  0  0  0  0  0  0  0  0  0
    8.8165   -4.1872    0.0000 C   0  0  0  0  0  0  0  0  0  0  0  0
    8.1060    4.7368    0.0000 C   0  0  0  0  0  0  0  0  0  0  0  0
    9.1659   -5.9454    0.0000 C   0  0  0  0  0  0  0  0  0  0  0  0
    8.0671    6.5288    0.0000 C   0  0  0  0  0  0  0  0  0  0  0  0
    9.6827   -7.6616    0.0000 C   0  0  0  0  0  0  0  0  0  0  0  0
    7.8562    8.3088    0.0000 C   0  0  0  0  0  0  0  0  0  0  0  0
   10.0322   -9.4197    0.0000 C   0  0  0  0  0  0  0  0  0  0  0  0
    7.8173   10.1008    0.0000 C   0  0  0  0  0  0  0  0  0  0  0  0
   10.5490  -11.1361    0.0000 C   0  0  0  0  0  0  0  0  0  0  0  0
    7.6065   11.8808    0.0000 C   0  0  0  0  0  0  0  0  0  0  0  0
   10.8985  -12.8941    0.0000 C   0  0  0  0  0  0  0  0  0  0  0  0
    7.5676   13.6728    0.0000 C   0  0  0  0  0  0  0  0  0  0  0  0
   11.4152  -14.6104    0.0000 C   0  0  0  0  0  0  0  0  0  0  0  0
    7.3566   15.4528    0.0000 C   0  0  0  0  0  0  0  0  0  0  0  0
   10.2931    1.2276    0.0000 C   0  0  1  0  0  0  0  0  0  0  0  0
    6.6969   -1.6456    0.0000 C   0  0  1  0  0  0  0  0  0  0  0  0
    6.4472    1.9264    0.0000 C   0  0  1  0  0  0  0  0  0  0  0  0
   10.5429   -2.3444    0.0000 C   0  0  1  0  0  0  0  0  0  0  0  0
   10.1009    3.9766    0.0000 C   0  0  1  0  0  0  0  0  0  0  0  0
    6.9545   -4.7261    0.0000 C   0  0  1  0  0  0  0  0  0  0  0  0
    6.1974    5.4984    0.0000 C   0  0  1  0  0  0  0  0  0  0  0  0
   11.0630   -5.5469    0.0000 C   0  0  1  0  0  0  0  0  0  0  0  0
   11.7647  -16.3684    0.0000 C   0  0  0  0  0  0  0  0  0  0  0  0
    9.8512    7.5487    0.0000 C   0  0  1  0  0  0  0  0  0  0  0  0
    7.8208   -8.2005    0.0000 C   0  0  1  0  0  0  0  0  0  0  0  0
    5.9477    9.0705    0.0000 C   0  0  1  0  0  0  0  0  0  0  0  0
   11.9292   -9.0214    0.0000 C   0  0  1  0  0  0  0  0  0  0  0  0
    9.6014   11.1207    0.0000 C   0  0  1  0  0  0  0  0  0  0  0  0
    7.3178   17.2448    0.0000 C   0  0  0  0  0  0  0  0  0  0  0  0
    8.6870  -11.6749    0.0000 C   0  0  1  0  0  0  0  0  0  0  0  0
    5.6978   12.6425    0.0000 C   0  0  1  0  0  0  0  0  0  0  0  0
   12.7955  -12.4958    0.0000 C   0  0  1  0  0  0  0  0  0  0  0  0
    9.3515   14.6927    0.0000 C   0  0  1  0  0  0  0  0  0  0  0  0
    9.5533  -15.1493    0.0000 C   0  0  1  0  0  0  0  0  0  0  0  0
   12.2815  -18.0848    0.0000 C   0  0  0  0  0  0  0  0  0  0  0  0
    5.3905   17.0375    0.0000 C   0  0  1  0  0  0  0  0  0  0  0  0
   13.8614  -16.7706    0.0000 C   0  0  1  0  0  0  0  0  0  0  0  0
    7.1069   19.0249    0.0000 C   0  0  0  0  0  0  0  0  0  0  0  0
    9.0442   19.0878    0.0000 C   0  0  1  0  0  0  0  0  0  0  0  0
   12.6310  -19.8428    0.0000 C   0  0  0  0  0  0  0  0  0  0  0  0
   10.4195  -18.6237    0.0000 C   0  0  1  0  0  0  0  0  0  0  0  0
    5.6559   24.4906    0.0000 C   0  0  2  0  0  0  0  0  0  0  0  0
   14.8942  -24.1566    0.0000 C   0  0  2  0  0  0  0  0  0  0  0  0
   10.3507    0.4046    0.0000 C   0  0  1  0  0  0  0  0  0  0  0  0
    6.6394   -0.8226    0.0000 C   0  0  1  0  0  0  0  0  0  0  0  0
    7.0680   20.8169    0.0000 C   0  0  0  0  0  0  0  0  0  0  0  0
    6.3896    2.7494    0.0000 C   0  0  1  0  0  0  0  0  0  0  0  0
   10.6005   -3.1674    0.0000 C   0  0  1  0  0  0  0  0  0  0  0  0
   10.0434    4.7996    0.0000 C   0  0  1  0  0  0  0  0  0  0  0  0
    7.1541   -5.5267    0.0000 C   0  0  1  0  0  0  0  0  0  0  0  0
    6.1399    6.3215    0.0000 C   0  0  1  0  0  0  0  0  0  0  0  0
   11.2625   -6.3475    0.0000 C   0  0  1  0  0  0  0  0  0  0  0  0
    9.7936    8.3717    0.0000 C   0  0  1  0  0  0  0  0  0  0  0  0
    8.0204   -9.0011    0.0000 C   0  0  1  0  0  0  0  0  0  0  0  0
    5.8901    9.8935    0.0000 C   0  0  1  0  0  0  0  0  0  0  0  0
   12.1288   -9.8219    0.0000 C   0  0  1  0  0  0  0  0  0  0  0  0
    9.5438   11.9437    0.0000 C   0  0  1  0  0  0  0  0  0  0  0  0
    8.8866  -12.4754    0.0000 C   0  0  1  0  0  0  0  0  0  0  0  0
    5.1408   20.6095    0.0000 C   0  0  1  0  0  0  0  0  0  0  0  0
   14.7275  -20.2450    0.0000 C   0  0  1  0  0  0  0  0  0  0  0  0
    5.6403   13.4655    0.0000 C   0  0  1  0  0  0  0  0  0  0  0  0
   12.9951  -13.2963    0.0000 C   0  0  1  0  0  0  0  0  0  0  0  0
    9.2940   15.5157    0.0000 C   0  0  1  0  0  0  0  0  0  0  0  0
    9.7529  -15.9498    0.0000 C   0  0  1  0  0  0  0  0  0  0  0  0
   13.1478  -21.5591    0.0000 C   0  0  0  0  0  0  0  0  0  0  0  0
    5.4481   16.2145    0.0000 C   0  0  1  0  0  0  0  0  0  0  0  0
   13.6617  -15.9701    0.0000 C   0  0  1  0  0  0  0  0  0  0  0  0
    9.1018   18.2647    0.0000 C   0  0  1  0  0  0  0  0  0  0  0  0
   10.6191  -19.4242    0.0000 C   0  0  1  0  0  0  0  0  0  0  0  0
    6.8571   22.5969    0.0000 C   0  0  0  0  0  0  0  0  0  0  0  0
    8.7945   22.6598    0.0000 C   0  0  1  0  0  0  0  0  0  0  0  0
   11.4854  -22.8986    0.0000 C   0  0  1  0  0  0  0  0  0  0  0  0
    5.3200   27.3330    0.0000 C   0  0  2  0  0  0  0  0  0  0  0  0
   15.1284  -27.1006    0.0000 C   0  0  1  0  0  0  0  0  0  0  0  0
    5.1983   19.7865    0.0000 C   0  0  1  0  0  0  0  0  0  0  0  0
   14.5280  -19.4445    0.0000 C   0  0  1  0  0  0  0  0  0  0  0  0
   13.4973  -23.3173    0.0000 C   0  0  0  0  0  0  0  0  0  0  0  0
    7.5967   25.3676    0.0000 C   0  0  2  0  0  0  0  0  0  0  0  0
   13.1747  -26.4305    0.0000 C   0  0  2  0  0  0  0  0  0  0  0  0
    8.8520   21.8368    0.0000 C   0  0  1  0  0  0  0  0  0  0  0  0
   11.2858  -22.0980    0.0000 C   0  0  1  0  0  0  0  0  0  0  0  0
    4.8910   24.1815    0.0000 C   0  0  1  0  0  0  0  0  0  0  0  0
   15.5938  -23.7194    0.0000 C   0  0  1  0  0  0  0  0  0  0  0  0
    6.7166   24.4906    0.0000 C   0  0  0  0  0  0  0  0  0  0  0  0
    4.9486   23.3586    0.0000 C   0  0  1  0  0  0  0  0  0  0  0  0
   15.3942  -22.9189    0.0000 C   0  0  1  0  0  0  0  0  0  0  0  0
   14.0141  -25.0335    0.0000 C   0  0  0  0  0  0  0  0  0  0  0  0
    8.2963   25.8048    0.0000 C   0  0  1  0  0  0  0  0  0  0  0  0
   12.3516  -26.3730    0.0000 C   0  0  1  0  0  0  0  0  0  0  0  0
    6.1997   26.2070    0.0000 C   0  0  0  0  0  0  0  0  0  0  0  0
    4.6879   27.8633    0.0000 C   0  0  2  0  0  0  0  0  0  0  0  0
   15.7605  -27.6310    0.0000 C   0  0  2  0  0  0  0  0  0  0  0  0
    8.0968   26.6053    0.0000 C   0  0  1  0  0  0  0  0  0  0  0  0
   12.1521  -25.5724    0.0000 C   0  0  1  0  0  0  0  0  0  0  0  0
    6.0984   29.3723    0.0000 C   0  0  2  0  0  0  0  0  0  0  0  0
   14.3500  -29.1399    0.0000 C   0  0  1  0  0  0  0  0  0  0  0  0
   14.3635  -26.7916    0.0000 C   0  0  0  0  0  0  0  0  0  0  0  0
    3.9883   27.4261    0.0000 C   0  0  1  0  0  0  0  0  0  0  0  0
   16.4601  -27.1938    0.0000 C   0  0  1  0  0  0  0  0  0  0  0  0
    5.8503   27.9650    0.0000 C   0  0  0  0  0  0  0  0  0  0  0  0
    4.1879   26.6256    0.0000 C   0  0  1  0  0  0  0  0  0  0  0  0
   16.2605  -26.3933    0.0000 C   0  0  1  0  0  0  0  0  0  0  0  0
    6.4074   30.1372    0.0000 C   0  0  2  0  0  0  0  0  0  0  0  0
   14.0410  -29.9049    0.0000 C   0  0  2  0  0  0  0  0  0  0  0  0
   14.8803  -28.5080    0.0000 C   0  0  0  0  0  0  0  0  0  0  0  0
   11.0503   -0.0326    0.0000 C   0  0  0  0  0  0  0  0  0  0  0  0
    5.9397   -0.3855    0.0000 C   0  0  0  0  0  0  0  0  0  0  0  0
    5.6900    3.1866    0.0000 C   0  0  0  0  0  0  0  0  0  0  0  0
   11.3002   -3.6046    0.0000 C   0  0  0  0  0  0  0  0  0  0  0  0
   10.6754    5.3300    0.0000 C   0  0  0  0  0  0  0  0  0  0  0  0
    6.6238   -6.1587    0.0000 C   0  0  0  0  0  0  0  0  0  0  0  0
    5.4402    6.7587    0.0000 C   0  0  0  0  0  0  0  0  0  0  0  0
   12.0275   -6.6565    0.0000 C   0  0  0  0  0  0  0  0  0  0  0  0
   10.4255    8.9020    0.0000 C   0  0  0  0  0  0  0  0  0  0  0  0
    7.4900   -9.6330    0.0000 C   0  0  0  0  0  0  0  0  0  0  0  0
    5.1905   10.3307    0.0000 C   0  0  0  0  0  0  0  0  0  0  0  0
   12.8938  -10.1309    0.0000 C   0  0  0  0  0  0  0  0  0  0  0  0
   10.1758   12.4740    0.0000 C   0  0  0  0  0  0  0  0  0  0  0  0
    7.2305   30.0796    0.0000 C   0  0  1  0  0  0  0  0  0  0  0  0
    8.3563  -13.1074    0.0000 C   0  0  0  0  0  0  0  0  0  0  0  0
    4.9406   13.9027    0.0000 C   0  0  0  0  0  0  0  0  0  0  0  0
   13.7600  -13.6053    0.0000 C   0  0  0  0  0  0  0  0  0  0  0  0
   13.2179  -29.8473    0.0000 C   0  0  1  0  0  0  0  0  0  0  0  0
    9.9260   16.0460    0.0000 C   0  0  0  0  0  0  0  0  0  0  0  0
    9.2226  -16.5818    0.0000 C   0  0  0  0  0  0  0  0  0  0  0  0
    4.8161   15.6842    0.0000 C   0  0  0  0  0  0  0  0  0  0  0  0
   14.1920  -15.3381    0.0000 C   0  0  0  0  0  0  0  0  0  0  0  0
    9.8014   17.8276    0.0000 C   0  0  0  0  0  0  0  0  0  0  0  0
   10.0889  -20.0562    0.0000 C   0  0  0  0  0  0  0  0  0  0  0  0
    7.4301   29.2792    0.0000 C   0  0  1  0  0  0  0  0  0  0  0  0
    4.5663   19.2562    0.0000 C   0  0  0  0  0  0  0  0  0  0  0  0
   15.0583  -18.8125    0.0000 C   0  0  0  0  0  0  0  0  0  0  0  0
   13.0183  -29.0468    0.0000 C   0  0  1  0  0  0  0  0  0  0  0  0
    4.4537   30.8074    0.0000 C   0  0  2  0  0  0  0  0  0  0  0  0
    5.3335   29.6813    0.0000 C   0  0  0  0  0  0  0  0  0  0  0  0
   15.9947  -30.5750    0.0000 C   0  0  2  0  0  0  0  0  0  0  0  0
    9.5517   21.3996    0.0000 C   0  0  0  0  0  0  0  0  0  0  0  0
   10.5208  -21.7890    0.0000 C   0  0  0  0  0  0  0  0  0  0  0  0
    4.3165   22.8283    0.0000 C   0  0  0  0  0  0  0  0  0  0  0  0
   15.9246  -22.2869    0.0000 C   0  0  0  0  0  0  0  0  0  0  0  0
    3.8217   31.3377    0.0000 C   0  0  2  0  0  0  0  0  0  0  0  0
   15.2297  -30.2660    0.0000 C   0  0  0  0  0  0  0  0  0  0  0  0
   16.6267  -31.1054    0.0000 C   0  0  2  0  0  0  0  0  0  0  0  0
    8.6271   27.2373    0.0000 C   0  0  0  0  0  0  0  0  0  0  0  0
   11.3871  -25.2634    0.0000 C   0  0  0  0  0  0  0  0  0  0  0  0
    3.1220   30.9005    0.0000 C   0  0  1  0  0  0  0  0  0  0  0  0
   17.3264  -30.6682    0.0000 C   0  0  1  0  0  0  0  0  0  0  0  0
    3.6576   25.9936    0.0000 C   0  0  0  0  0  0  0  0  0  0  0  0
   16.7908  -25.7613    0.0000 C   0  0  0  0  0  0  0  0  0  0  0  0
    3.3216   30.1000    0.0000 C   0  0  1  0  0  0  0  0  0  0  0  0
   17.1268  -29.8677    0.0000 C   0  0  1  0  0  0  0  0  0  0  0  0
    4.9840   31.4393    0.0000 C   0  0  0  0  0  0  0  0  0  0  0  0
    8.1950   28.9701    0.0000 C   0  0  0  0  0  0  0  0  0  0  0  0
   12.2534  -28.7377    0.0000 C   0  0  0  0  0  0  0  0  0  0  0  0
    5.2321   32.8467    0.0000 C   0  0  2  0  0  0  0  0  0  0  0  0
   15.4644  -32.0320    0.0000 C   0  0  1  0  0  0  0  0  0  0  0  0
    5.5413   33.6116    0.0000 C   0  0  2  0  0  0  0  0  0  0  0  0
    2.7913   29.4680    0.0000 C   0  0  0  0  0  0  0  0  0  0  0  0
   17.6571  -29.2356    0.0000 C   0  0  0  0  0  0  0  0  0  0  0  0
   14.7499  -32.4445    0.0000 C   0  0  1  0  0  0  0  0  0  0  0  0
    6.3642   33.5540    0.0000 C   0  0  1  0  0  0  0  0  0  0  0  0
    6.5638   32.7535    0.0000 C   0  0  1  0  0  0  0  0  0  0  0  0
   14.7499  -33.2696    0.0000 C   0  0  2  0  0  0  0  0  0  0  0  0
   15.4644  -33.6821    0.0000 C   0  0  1  0  0  0  0  0  0  0  0  0
   16.1788  -33.2696    0.0000 C   0  0  1  0  0  0  0  0  0  0  0  0
    4.4672   33.1557    0.0000 C   0  0  0  0  0  0  0  0  0  0  0  0
    7.3287   32.4445    0.0000 C   0  0  0  0  0  0  0  0  0  0  0  0
   16.8934  -33.6821    0.0000 C   0  0  0  0  0  0  0  0  0  0  0  0
192  1  1  1  0  0  0
  1248  1  0  0  0  0
193  2  1  1  0  0  0
  2250  1  0  0  0  0
194  3  1  1  0  0  0
  3249  1  0  0  0  0
195  4  1  1  0  0  0
  4252  1  0  0  0  0
196  5  1  6  0  0  0
  5251  1  0  0  0  0
197  6  1  6  0  0  0
  6254  1  0  0  0  0
198  7  1  1  0  0  0
  7253  1  0  0  0  0
200  8  1  6  0  0  0
  8255  1  0  0  0  0
199  9  1  1  0  0  0
  9256  1  0  0  0  0
202 10  1  1  0  0  0
 10257  1  0  0  0  0
201 11  1  6  0  0  0
 11258  1  0  0  0  0
204 12  1  6  0  0  0
 12259  1  0  0  0  0
203 13  1  1  0  0  0
 13260  1  0  0  0  0
206 14  1  1  0  0  0
 14261  1  0  0  0  0
205 15  1  6  0  0  0
 15262  1  0  0  0  0
207 16  1  1  0  0  0
 16264  1  0  0  0  0
208 17  1  6  0  0  0
 17263  1  0  0  0  0
209 18  1  6  0  0  0
 18274  1  0  0  0  0
210 19  1  6  0  0  0
 19265  1  0  0  0  0
211 20  1  6  0  0  0
 20286  1  0  0  0  0
 21192  1  0  0  0  0
 21295  1  0  0  0  0
 22193  1  0  0  0  0
 22296  1  0  0  0  0
 23194  1  0  0  0  0
 23298  1  0  0  0  0
 24195  1  0  0  0  0
 24299  1  0  0  0  0
 25196  1  0  0  0  0
 25300  1  0  0  0  0
 26197  1  0  0  0  0
 26301  1  0  0  0  0
 27198  1  0  0  0  0
 27302  1  0  0  0  0
212 28  1  1  0  0  0
 28280  1  0  0  0  0
 29199  1  0  0  0  0
 29303  1  0  0  0  0
 30200  1  0  0  0  0
 30304  1  0  0  0  0
 31201  1  0  0  0  0
 31305  1  0  0  0  0
 32202  1  0  0  0  0
 32306  1  0  0  0  0
 33203  1  0  0  0  0
 33307  1  0  0  0  0
 34204  1  0  0  0  0
 34308  1  0  0  0  0
 35205  1  0  0  0  0
 35309  1  0  0  0  0
 36206  1  0  0  0  0
 36312  1  0  0  0  0
 37207  1  0  0  0  0
 37313  1  0  0  0  0
 38208  1  0  0  0  0
 38314  1  0  0  0  0
 39209  1  0  0  0  0
 39315  1  0  0  0  0
213 40  1  6  0  0  0
 40291  1  0  0  0  0
 41210  1  0  0  0  0
 41317  1  0  0  0  0
214 42  1  6  0  0  0
 42289  1  0  0  0  0
 43211  1  0  0  0  0
 43318  1  0  0  0  0
 44212  1  0  0  0  0
 44319  1  0  0  0  0
 45213  1  0  0  0  0
 45320  1  0  0  0  0
215 46  1  6  0  0  0
 46316  1  0  0  0  0
216 47  1  1  0  0  0
 47297  1  0  0  0  0
 48214  1  0  0  0  0
 48326  1  0  0  0  0
 49215  1  0  0  0  0
 49327  1  0  0  0  0
217 50  1  1  0  0  0
 50328  1  0  0  0  0
 51216  1  0  0  0  0
 51331  1  0  0  0  0
 52217  1  0  0  0  0
 52332  1  0  0  0  0
218 53  1  6  0  0  0
 53321  1  0  0  0  0
 54218  1  0  0  0  0
 54336  1  0  0  0  0
 55219  1  0  0  0  0
 55337  1  0  0  0  0
219 56  1  6  0  0  0
 56338  1  0  0  0  0
244 57  1  6  0  0  0
 57335  1  0  0  0  0
 58244  1  0  0  0  0
 58344  1  0  0  0  0
 59245  1  0  0  0  0
 59345  1  0  0  0  0
245 60  1  1  0  0  0
 60348  1  0  0  0  0
324 61  1  6  0  0  0
 61341  1  0  0  0  0
 62324  1  0  0  0  0
 62352  1  0  0  0  0
 63325  1  0  0  0  0
 63353  1  0  0  0  0
325 64  1  6  0  0  0
 64356  1  0  0  0  0
346 65  1  1  0  0  0
 65351  1  0  0  0  0
220 66  1  1  0  0  0
221 67  1  1  0  0  0
222 68  1  1  0  0  0
223 69  1  1  0  0  0
224 70  1  6  0  0  0
225 71  1  6  0  0  0
226 72  1  1  0  0  0
227 73  1  1  0  0  0
228 74  1  6  0  0  0
229 75  1  6  0  0  0
230 76  1  1  0  0  0
231 77  1  1  0  0  0
232 78  1  6  0  0  0
233 79  1  6  0  0  0
234 80  1  1  0  0  0
235 81  1  1  0  0  0
236 82  1  6  0  0  0
237 83  1  6  0  0  0
238 84  1  6  0  0  0
239 85  1  6  0  0  0
 86346  1  0  0  0  0
 86381  1  0  0  0  0
 87347  1  0  0  0  0
 87384  1  0  0  0  0
240 88  1  1  0  0  0
241 89  1  6  0  0  0
242 90  1  6  0  0  0
243 91  1  6  0  0  0
246 92  1  1  0  0  0
247 93  1  1  0  0  0
347 94  1  1  0  0  0
 94393  1  0  0  0  0
266 95  1  6  0  0  0
267 96  1  6  0  0  0
268 97  1  6  0  0  0
269 98  1  6  0  0  0
270 99  1  1  0  0  0
271100  1  1  0  0  0
272101  1  6  0  0  0
273102  1  6  0  0  0
275103  1  1  0  0  0
276104  1  1  0  0  0
277105  1  6  0  0  0
278106  1  6  0  0  0
279107  1  1  0  0  0
281108  1  1  0  0  0
282109  1  6  0  0  0
283110  1  6  0  0  0
284111  1  1  0  0  0
285112  1  1  0  0  0
287113  1  1  0  0  0
288114  1  1  0  0  0
290115  1  6  0  0  0
292116  1  1  0  0  0
293117  1  6  0  0  0
294118  1  6  0  0  0
310119  1  1  0  0  0
311120  1  1  0  0  0
322121  1  6  0  0  0
323122  1  6  0  0  0
385123  1  6  0  0  0
123386  1  0  0  0  0
329124  1  6  0  0  0
330125  1  1  0  0  0
333126  1  1  0  0  0
334127  1  1  0  0  0
339128  1  1  0  0  0
340129  1  6  0  0  0
130385  1  0  0  0  0
130401  1  0  0  0  0
131387  1  0  0  0  0
131402  1  0  0  0  0
342132  1  6  0  0  0
343133  1  6  0  0  0
349134  1  1  0  0  0
350135  1  1  0  0  0
387136  1  6  0  0  0
407136  1  1  0  0  0
354137  1  1  0  0  0
355138  1  1  0  0  0
139357  1  0  0  0  0
140358  1  0  0  0  0
141359  1  0  0  0  0
142360  1  0  0  0  0
143361  1  0  0  0  0
144362  1  0  0  0  0
145363  1  0  0  0  0
146364  1  0  0  0  0
147365  1  0  0  0  0
148366  1  0  0  0  0
149367  1  0  0  0  0
150368  1  0  0  0  0
370151  1  6  0  0  0
152369  1  0  0  0  0
153371  1  0  0  0  0
154403  1  0  0  0  0
406154  1  1  0  0  0
155372  1  0  0  0  0
156373  1  0  0  0  0
374157  1  6  0  0  0
158375  1  0  0  0  0
159376  1  0  0  0  0
160377  1  0  0  0  0
161378  1  0  0  0  0
162379  1  0  0  0  0
163380  1  0  0  0  0
164382  1  0  0  0  0
165383  1  0  0  0  0
166388  1  0  0  0  0
167389  1  0  0  0  0
168390  1  0  0  0  0
169391  1  0  0  0  0
392170  1  6  0  0  0
394171  1  6  0  0  0
172395  1  0  0  0  0
173396  1  0  0  0  0
174406  1  0  0  0  0
174413  1  0  0  0  0
397175  1  1  0  0  0
398176  1  1  0  0  0
177399  1  0  0  0  0
178400  1  0  0  0  0
179407  1  0  0  0  0
179416  1  0  0  0  0
180404  1  0  0  0  0
181405  1  0  0  0  0
408182  1  1  0  0  0
183409  1  0  0  0  0
184410  1  0  0  0  0
411185  1  1  0  0  0
412186  1  6  0  0  0
414187  1  6  0  0  0
415188  1  1  0  0  0
189417  1  0  0  0  0
190418  1  0  0  0  0
191419  1  0  0  0  0
192220  1  0  0  0  0
192249  1  0  0  0  0
193221  1  0  0  0  0
193248  1  0  0  0  0
194222  1  0  0  0  0
194251  1  0  0  0  0
195223  1  0  0  0  0
195250  1  0  0  0  0
196224  1  0  0  0  0
196253  1  0  0  0  0
197225  1  0  0  0  0
197252  1  0  0  0  0
198226  1  0  0  0  0
198255  1  0  0  0  0
199227  1  0  0  0  0
199254  1  0  0  0  0
200228  1  0  0  0  0
200257  1  0  0  0  0
201229  1  0  0  0  0
201256  1  0  0  0  0
202230  1  0  0  0  0
202259  1  0  0  0  0
203231  1  0  0  0  0
203258  1  0  0  0  0
204232  1  0  0  0  0
204261  1  0  0  0  0
205233  1  0  0  0  0
205260  1  0  0  0  0
206234  1  0  0  0  0
206263  1  0  0  0  0
207235  1  0  0  0  0
207262  1  0  0  0  0
208236  1  0  0  0  0
208265  1  0  0  0  0
209237  1  0  0  0  0
209264  1  0  0  0  0
210238  1  0  0  0  0
210280  1  0  0  0  0
211239  1  0  0  0  0
211274  1  0  0  0  0
212240  1  0  0  0  0
212289  1  0  0  0  0
213241  1  0  0  0  0
213286  1  0  0  0  0
214242  1  0  0  0  0
214297  1  0  0  0  0
215243  1  0  0  0  0
215291  1  0  0  0  0
216246  1  0  0  0  0
216321  1  0  0  0  0
217247  1  0  0  0  0
217316  1  0  0  0  0
218293  1  0  0  0  0
218335  1  0  0  0  0
219294  1  0  0  0  0
219328  1  0  0  0  0
220266  1  0  0  0  0
221267  1  0  0  0  0
222268  1  0  0  0  0
223269  1  0  0  0  0
224270  1  0  0  0  0
225271  1  0  0  0  0
226272  1  0  0  0  0
227273  1  0  0  0  0
228275  1  0  0  0  0
229276  1  0  0  0  0
230277  1  0  0  0  0
231278  1  0  0  0  0
232279  1  0  0  0  0
233281  1  0  0  0  0
234282  1  0  0  0  0
235283  1  0  0  0  0
236284  1  0  0  0  0
237285  1  0  0  0  0
238287  1  0  0  0  0
239288  1  0  0  0  0
240290  1  0  0  0  0
241292  1  0  0  0  0
242310  1  0  0  0  0
243311  1  0  0  0  0
244329  1  0  0  0  0
244341  1  0  0  0  0
245330  1  0  0  0  0
245338  1  0  0  0  0
246322  1  0  0  0  0
247323  1  0  0  0  0
266295  1  0  0  0  0
267296  1  0  0  0  0
268298  1  0  0  0  0
269299  1  0  0  0  0
270300  1  0  0  0  0
271301  1  0  0  0  0
272302  1  0  0  0  0
273303  1  0  0  0  0
275304  1  0  0  0  0
276305  1  0  0  0  0
277306  1  0  0  0  0
278307  1  0  0  0  0
279308  1  0  0  0  0
281309  1  0  0  0  0
282312  1  0  0  0  0
283313  1  0  0  0  0
284314  1  0  0  0  0
285315  1  0  0  0  0
287317  1  0  0  0  0
288318  1  0  0  0  0
290319  1  0  0  0  0
292320  1  0  0  0  0
293333  1  0  0  0  0
294334  1  0  0  0  0
295357  1  1  0  0  0
296358  1  1  0  0  0
298359  1  1  0  0  0
299360  1  1  0  0  0
300361  1  6  0  0  0
301362  1  6  0  0  0
302363  1  1  0  0  0
303364  1  1  0  0  0
304365  1  6  0  0  0
305366  1  6  0  0  0
306367  1  1  0  0  0
307368  1  1  0  0  0
308369  1  6  0  0  0
309371  1  6  0  0  0
310326  1  0  0  0  0
311327  1  0  0  0  0
312372  1  1  0  0  0
313373  1  1  0  0  0
314375  1  6  0  0  0
315376  1  6  0  0  0
317377  1  6  0  0  0
318378  1  6  0  0  0
319379  1  1  0  0  0
320380  1  6  0  0  0
322331  1  0  0  0  0
323332  1  0  0  0  0
324342  1  0  0  0  0
324351  1  0  0  0  0
325343  1  0  0  0  0
325348  1  0  0  0  0
326382  1  6  0  0  0
327383  1  6  0  0  0
329339  1  0  0  0  0
330340  1  0  0  0  0
331388  1  1  0  0  0
332389  1  1  0  0  0
333336  1  0  0  0  0
334337  1  0  0  0  0
336390  1  6  0  0  0
337391  1  6  0  0  0
339344  1  0  0  0  0
340345  1  0  0  0  0
342349  1  0  0  0  0
343350  1  0  0  0  0
344395  1  6  0  0  0
345396  1  1  0  0  0
346354  1  0  0  0  0
346386  1  0  0  0  0
347355  1  0  0  0  0
347356  1  0  0  0  0
349352  1  0  0  0  0
350353  1  0  0  0  0
352399  1  6  0  0  0
353400  1  6  0  0  0
354370  1  0  0  0  0
355374  1  0  0  0  0
370381  1  0  0  0  0
374384  1  0  0  0  0
381404  1  1  0  0  0
384405  1  1  0  0  0
385392  1  0  0  0  0
385403  1  0  0  0  0
387393  1  0  0  0  0
387394  1  0  0  0  0
392397  1  0  0  0  0
394398  1  0  0  0  0
397401  1  0  0  0  0
398402  1  0  0  0  0
401409  1  6  0  0  0
402410  1  6  0  0  0
406408  1  0  0  0  0
406417  1  0  0  0  0
407411  1  0  0  0  0
408412  1  0  0  0  0
411414  1  0  0  0  0
412413  1  0  0  0  0
413418  1  1  0  0  0
414415  1  0  0  0  0
415416  1  0  0  0  0
416419  1  6  0  0  0
M  END
> <DRUGBANK_ID>
DB00638

> <DRUG_GROUPS>
approved; nutraceutical

> <GENERIC_NAME>
Inulin

> <BRANDS>


> <CHEMICAL_FORMULA>
C228H382O191

> <MOLECULAR_WEIGHT>
6179.3581

> <EXACT_MASS>
6176.017855026

> <IUPAC_NAME>
(2R,3R,4S,5S,6R)-2-{[(2S,3S,4S,5R)-2-({[(2R,3S,4S,5R)-2-({[(2R,3S,4S,5R)-2-({[(2R,3S,4S,5R)-2-({[(2R,3S,4S,5R)-2-({[(2R,3S,4S,5R)-2-({[(2R,3S,4S,5R)-2-({[(2R,3S,4S,5R)-2-({[(2R,3S,4S,5R)-2-({[(2R,3S,4S,5R)-2-({[(2R,3S,4S,5R)-2-({[(2R,3S,4S,5R)-2-({[(2R,3S,4S,5R)-2-({[(2R,3S,4S,5R)-2-({[(2R,3S,4S,5R)-2-({[(2R,3S,4S,5R)-2-({[(2R,3S,4S,5R)-2-({[(2R,3S,4S,5R)-2-({[(2R,3S,4S,5R)-2-({[(2R,3S,4S,5R)-2-({[(2R,3S,4S,5R)-2-({[(2R,3S,4S,5R)-2-({[(2R,3S,4S,5R)-2-({[(2R,3S,4S,5R)-2-({[(2R,3S,4S,5R)-2-({[(2R,3S,4S,5R)-2-({[(2R,3S,4S,5R)-2-({[(2R,3S,4S,5R)-2-({[(2R,3S,4S,5R)-2-({[(2R,3S,4S,5R)-2-({[(2R,3S,4S,5R)-2-({[(2R,3S,4S,5R)-2-({[(2R,3S,4S,5R)-2-({[(2R,3S,4S,5R)-2-({[(2R,3S,4S,5R)-2-({[(2R,3S,4S,5R)-2-({[(2R,3S,4S,5R)-3,4-dihydroxy-2,5-bis(hydroxymethyl)oxolan-2-yl]oxy}methyl)-3,4-dihydroxy-5-(hydroxymethyl)oxolan-2-yl]oxy}methyl)-3,4-dihydroxy-5-(hydroxymethyl)oxolan-2-yl]oxy}methyl)-3,4-dihydroxy-5-(hydroxymethyl)oxolan-2-yl]oxy}methyl)-3,4-dihydroxy-5-(hydroxymethyl)oxolan-2-yl]oxy}methyl)-3,4-dihydroxy-5-(hydroxymethyl)oxolan-2-yl]oxy}methyl)-3,4-dihydroxy-5-(hydroxymethyl)oxolan-2-yl]oxy}methyl)-3,4-dihydroxy-5-(hydroxymethyl)oxolan-2-yl]oxy}methyl)-3,4-dihydroxy-5-(hydroxymethyl)oxolan-2-yl]oxy}methyl)-3,4-dihydroxy-5-(hydroxymethyl)oxolan-2-yl]oxy}methyl)-3,4-dihydroxy-5-(hydroxymethyl)oxolan-2-yl]oxy}methyl)-3,4-dihydroxy-5-(hydroxymethyl)oxolan-2-yl]oxy}methyl)-3,4-dihydroxy-5-(hydroxymethyl)oxolan-2-yl]oxy}methyl)-3,4-dihydroxy-5-(hydroxymethyl)oxolan-2-yl]oxy}methyl)-3,4-dihydroxy-5-(hydroxymethyl)oxolan-2-yl]oxy}methyl)-3,4-dihydroxy-5-(hydroxymethyl)oxolan-2-yl]oxy}methyl)-3,4-dihydroxy-5-(hydroxymethyl)oxolan-2-yl]oxy}methyl)-3,4-dihydroxy-5-(hydroxymethyl)oxolan-2-yl]oxy}methyl)-3,4-dihydroxy-5-(hydroxymethyl)oxolan-2-yl]oxy}methyl)-3,4-dihydroxy-5-(hydroxymethyl)oxolan-2-yl]oxy}methyl)-3,4-dihydroxy-5-(hydroxymethyl)oxolan-2-yl]oxy}methyl)-3,4-dihydroxy-5-(hydroxymethyl)oxolan-2-yl]oxy}methyl)-3,4-dihydroxy-5-(hydroxymethyl)oxolan-2-yl]oxy}methyl)-3,4-dihydroxy-5-(hydroxymethyl)oxolan-2-yl]oxy}methyl)-3,4-dihydroxy-5-(hydroxymethyl)oxolan-2-yl]oxy}methyl)-3,4-dihydroxy-5-(hydroxymethyl)oxolan-2-yl]oxy}methyl)-3,4-dihydroxy-5-(hydroxymethyl)oxolan-2-yl]oxy}methyl)-3,4-dihydroxy-5-(hydroxymethyl)oxolan-2-yl]oxy}methyl)-3,4-dihydroxy-5-(hydroxymethyl)oxolan-2-yl]oxy}methyl)-3,4-dihydroxy-5-(hydroxymethyl)oxolan-2-yl]oxy}methyl)-3,4-dihydroxy-5-(hydroxymethyl)oxolan-2-yl]oxy}methyl)-3,4-dihydroxy-5-(hydroxymethyl)oxolan-2-yl]oxy}methyl)-3,4-dihydroxy-5-(hydroxymethyl)oxolan-2-yl]oxy}methyl)-3,4-dihydroxy-5-(hydroxymethyl)oxolan-2-yl]oxy}methyl)-3,4-dihydroxy-5-(hydroxymethyl)oxolan-2-yl]oxy}methyl)-3,4-dihydroxy-5-(hydroxymethyl)oxolan-2-yl]oxy}methyl)-3,4-dihydroxy-5-(hydroxymethyl)oxolan-2-yl]oxy}-6-(hydroxymethyl)oxane-3,4,5-triol

> <IUPAC_TRADITIONAL_NAME>
inulin

> <INCHI_IDENTIFIER>
InChI=1S/C228H382O191/c229-1-76-114(268)152(306)153(307)191(381-76)419-228(190(344)151(305)113(38-266)418-228)75-380-227(189(343)150(304)112(37-265)417-227)74-379-226(188(342)149(303)111(36-264)416-226)73-378-225(187(341)148(302)110(35-263)415-225)72-377-224(186(340)147(301)109(34-262)414-224)71-376-223(185(339)146(300)108(33-261)413-223)70-375-222(184(338)145(299)107(32-260)412-222)69-374-221(183(337)144(298)106(31-259)411-221)68-373-220(182(336)143(297)105(30-258)410-220)67-372-219(181(335)142(296)104(29-257)409-219)66-371-218(180(334)141(295)103(28-256)408-218)65-370-217(179(333)140(294)102(27-255)407-217)64-369-216(178(332)139(293)101(26-254)406-216)63-368-215(177(331)138(292)100(25-253)405-215)62-367-214(176(330)137(291)99(24-252)404-214)61-366-213(175(329)136(290)98(23-251)403-213)60-365-212(174(328)135(289)97(22-250)402-212)59-364-211(173(327)134(288)96(21-249)401-211)58-363-210(172(326)133(287)95(20-248)400-210)57-362-209(171(325)132(286)94(19-247)399-209)56-361-208(170(324)131(285)93(18-246)398-208)55-360-207(169(323)130(284)92(17-245)397-207)54-359-206(168(322)129(283)91(16-244)396-206)53-358-205(167(321)128(282)90(15-243)395-205)52-357-204(166(320)127(281)89(14-242)394-204)51-356-203(165(319)126(280)88(13-241)393-203)50-355-202(164(318)125(279)87(12-240)392-202)49-354-201(163(317)124(278)86(11-239)391-201)48-353-200(162(316)123(277)85(10-238)390-200)47-352-199(161(315)122(276)84(9-237)389-199)46-351-198(160(314)121(275)83(8-236)388-198)45-350-197(159(313)120(274)82(7-235)387-197)44-349-196(158(312)119(273)81(6-234)386-196)43-348-195(157(311)118(272)80(5-233)385-195)42-347-194(156(310)117(271)79(4-232)384-194)41-346-193(155(309)116(270)78(3-231)383-193)40-345-192(39-267)154(308)115(269)77(2-230)382-192/h76-191,229-344H,1-75H2/t76-,77-,78-,79-,80-,81-,82-,83-,84-,85-,86-,87-,88-,89-,90-,91-,92-,93-,94-,95-,96-,97-,98-,99-,100-,101-,102-,103-,104-,105-,106-,107-,108-,109-,110-,111-,112-,113-,114-,115-,116-,117-,118-,119-,120-,121-,122-,123-,124-,125-,126-,127-,128-,129-,130-,131-,132-,133-,134-,135-,136-,137-,138-,139-,140-,141-,142-,143-,144-,145-,146-,147-,148-,149-,150-,151-,152+,153-,154+,155+,156+,157+,158+,159+,160+,161+,162+,163+,164+,165+,166+,167+,168+,169+,170+,171+,172+,173+,174+,175+,176+,177+,178+,179+,180+,181+,182+,183+,184+,185+,186+,187+,188+,189+,190+,191-,192-,193-,194-,195-,196-,197-,198-,199-,200-,201-,202-,203-,204-,205-,206-,207-,208-,209-,210-,211-,212-,213-,214-,215-,216-,217-,218-,219-,220-,221-,222-,223-,224-,225-,226-,227-,228+/m1/s1

> <INCHI_KEY>
InChIKey=JYJIGFIDKWBXDU-MNNPPOADSA-N

> <SMILES>
OC[C@H]1O[C@@](CO)(OC[C@@]2(OC[C@@]3(OC[C@@]4(OC[C@@]5(OC[C@@]6(OC[C@@]7(OC[C@@]8(OC[C@@]9(OC[C@@]%10(OC[C@@]%11(OC[C@@]%12(OC[C@@]%13(OC[C@@]%14(OC[C@@]%15(OC[C@@]%16(OC[C@@]%17(OC[C@@]%18(OC[C@@]%19(OC[C@@]%20(OC[C@@]%21(OC[C@@]%22(OC[C@@]%23(OC[C@@]%24(OC[C@@]%25(OC[C@@]%26(OC[C@@]%27(OC[C@@]%28(OC[C@@]%29(OC[C@@]%30(OC[C@@]%31(OC[C@@]%32(OC[C@@]%33(OC[C@@]%34(OC[C@@]%35(OC[C@@]%36(OC[C@@]%37(O[C@H]%38O[C@H](CO)[C@@H](O)[C@H](O)[C@H]%38O)O[C@H](CO)[C@@H](O)[C@@H]%37O)O[C@H](CO)[C@@H](O)[C@@H]%36O)O[C@H](CO)[C@@H](O)[C@@H]%35O)O[C@H](CO)[C@@H](O)[C@@H]%34O)O[C@H](CO)[C@@H](O)[C@@H]%33O)O[C@H](CO)[C@@H](O)[C@@H]%32O)O[C@H](CO)[C@@H](O)[C@@H]%31O)O[C@H](CO)[C@@H](O)[C@@H]%30O)O[C@H](CO)[C@@H](O)[C@@H]%29O)O[C@H](CO)[C@@H](O)[C@@H]%28O)O[C@H](CO)[C@@H](O)[C@@H]%27O)O[C@H](CO)[C@@H](O)[C@@H]%26O)O[C@H](CO)[C@@H](O)[C@@H]%25O)O[C@H](CO)[C@@H](O)[C@@H]%24O)O[C@H](CO)[C@@H](O)[C@@H]%23O)O[C@H](CO)[C@@H](O)[C@@H]%22O)O[C@H](CO)[C@@H](O)[C@@H]%21O)O[C@H](CO)[C@@H](O)[C@@H]%20O)O[C@H](CO)[C@@H](O)[C@@H]%19O)O[C@H](CO)[C@@H](O)[C@@H]%18O)O[C@H](CO)[C@@H](O)[C@@H]%17O)O[C@H](CO)[C@@H](O)[C@@H]%16O)O[C@H](CO)[C@@H](O)[C@@H]%15O)O[C@H](CO)[C@@H](O)[C@@H]%14O)O[C@H](CO)[C@@H](O)[C@@H]%13O)O[C@H](CO)[C@@H](O)[C@@H]%12O)O[C@H](CO)[C@@H](O)[C@@H]%11O)O[C@H](CO)[C@@H](O)[C@@H]%10O)O[C@H](CO)[C@@H](O)[C@@H]9O)O[C@H](CO)[C@@H](O)[C@@H]8O)O[C@H](CO)[C@@H](O)[C@@H]7O)O[C@H](CO)[C@@H](O)[C@@H]6O)O[C@H](CO)[C@@H](O)[C@@H]5O)O[C@H](CO)[C@@H](O)[C@@H]4O)O[C@H](CO)[C@@H](O)[C@@H]3O)O[C@H](CO)[C@@H](O)[C@@H]2O)[C@@H](O)[C@@H]1O

> <JCHEM_ACCEPTOR_COUNT>
191

> <JCHEM_DONOR_COUNT>
116

> <JCHEM_ACIDIC_PKA>
11.27

> <JCHEM_BASIC_PKA>
-4

> <JCHEM_PHYSIOLOGICAL_CHARGE>
0

> <JCHEM_LOGP>
-62

> <JCHEM_POLAR_SURFACE_AREA>
3038.93

> <JCHEM_REFRACTIVITY>
1251.4

> <JCHEM_ROTATABLE_BOND_COUNT>
149 __ 

$$$$
