850
  Mrv0541 02231215032D          

 27 30  0  0  0  0            999 V2000
    8.8480   -1.8712    0.0000 Cl   0  0  0  0  0  0  0  0  0  0  0  0
    5.9361   -3.5410    0.0000 S    0  0  0  0  0  0  0  0  0  0  0  0
    1.6498    3.0581    0.0000 O    0  0  0  0  0  0  0  0  0  0  0  0
    4.5073    0.5834    0.0000 N    0  0  0  0  0  0  0  0  0  0  0  0
    3.0786    1.4083    0.0000 N    0  0  0  0  0  0  0  0  0  0  0  0
    5.9361   -1.8912    0.0000 N    0  0  0  0  0  0  0  0  0  0  0  0
    3.7929    0.1710    0.0000 C    0  0  0  0  0  0  0  0  0  0  0  0
    4.5073    1.4083    0.0000 C    0  0  0  0  0  0  0  0  0  0  0  0
    3.0786    0.5834    0.0000 C    0  0  0  0  0  0  0  0  0  0  0  0
    3.7929    1.8208    0.0000 C    0  0  0  0  0  0  0  0  0  0  0  0
    5.2216    0.1710    0.0000 C    0  0  0  0  0  0  0  0  0  0  0  0
    5.2216   -0.6539    0.0000 C    0  0  0  0  0  0  0  0  0  0  0  0
    2.3641    1.8208    0.0000 C    0  0  0  0  0  0  0  0  0  0  0  0
    5.9361   -1.0664    0.0000 C    0  0  0  0  0  0  0  0  0  0  0  0
    2.3641    2.6456    0.0000 C    0  0  0  0  0  0  0  0  0  0  0  0
    6.6504   -2.3037    0.0000 C    0  0  0  0  0  0  0  0  0  0  0  0
    5.2216   -2.3037    0.0000 C    0  0  0  0  0  0  0  0  0  0  0  0
    6.6504   -3.1286    0.0000 C    0  0  0  0  0  0  0  0  0  0  0  0
    5.2216   -3.1286    0.0000 C    0  0  0  0  0  0  0  0  0  0  0  0
    7.3878   -1.8626    0.0000 C    0  0  0  0  0  0  0  0  0  0  0  0
    4.4843   -1.8626    0.0000 C    0  0  0  0  0  0  0  0  0  0  0  0
    7.3878   -3.5695    0.0000 C    0  0  0  0  0  0  0  0  0  0  0  0
    4.4843   -3.5695    0.0000 C    0  0  0  0  0  0  0  0  0  0  0  0
    8.1352   -2.2865    0.0000 C    0  0  0  0  0  0  0  0  0  0  0  0
    3.7368   -2.2865    0.0000 C    0  0  0  0  0  0  0  0  0  0  0  0
    8.1352   -3.1457    0.0000 C    0  0  0  0  0  0  0  0  0  0  0  0
    3.7368   -3.1457    0.0000 C    0  0  0  0  0  0  0  0  0  0  0  0
  1 24  1  0  0  0  0
  2 18  1  0  0  0  0
  2 19  1  0  0  0  0
  3 15  1  0  0  0  0
  4  7  1  0  0  0  0
  4  8  1  0  0  0  0
  4 11  1  0  0  0  0
  5  9  1  0  0  0  0
  5 10  1  0  0  0  0
  5 13  1  0  0  0  0
  6 14  1  0  0  0  0
  6 16  1  0  0  0  0
  6 17  1  0  0  0  0
  7  9  1  0  0  0  0
  8 10  1  0  0  0  0
 11 12  1  0  0  0  0
 12 14  1  0  0  0  0
 13 15  1  0  0  0  0
 16 18  2  0  0  0  0
 16 20  1  0  0  0  0
 17 19  1  0  0  0  0
 17 21  2  0  0  0  0
 18 22  1  0  0  0  0
 19 23  2  0  0  0  0
 20 24  2  0  0  0  0
 21 25  1  0  0  0  0
 22 26  2  0  0  0  0
 23 27  1  0  0  0  0
 24 26  1  0  0  0  0
 25 27  2  0  0  0  0
M  END
> <DRUGBANK_ID>
DB00850

> <DRUG_GROUPS>
approved

> <GENERIC_NAME>
Perphenazine

> <SYNONYMS>
Etaperazin; Etaperazine; Ethaperazine; Perfenazina; Perphenazin; PerphÃ©nazine

> <SALTS>
Perphenazine enanthate; Perphenazine heptanoate

> <BRANDS>
Decentan; Emesinal; Fentazin; Perphenan; PZC; Trilafon; Trilifan

> <CHEMICAL_FORMULA>
C21H26ClN3OS

> <MOLECULAR_WEIGHT>
403.969

> <EXACT_MASS>
403.148510866

> <IUPAC_NAME>
2-{4-[3-(2-chloro-10H-phenothiazin-10-yl)propyl]piperazin-1-yl}ethan-1-ol

> <IUPAC_TRADITIONAL_NAME>
perphenazine

> <INCHI_IDENTIFIER>
InChI=1S/C21H26ClN3OS/c22-17-6-7-21-19(16-17)25(18-4-1-2-5-20(18)27-21)9-3-8-23-10-12-24(13-11-23)14-15-26/h1-2,4-7,16,26H,3,8-15H2

> <INCHI_KEY>
InChIKey=RGCVKNLCSQQDEP-UHFFFAOYSA-N

> <SMILES>
OCCN1CCN(CCCN2C3=CC=CC=C3SC3=C2C=C(Cl)C=C3)CC1

> <JCHEM_ACCEPTOR_COUNT>
4

> <JCHEM_DONOR_COUNT>
1

> <JCHEM_ACIDIC_PKA>
15.59

> <JCHEM_BASIC_PKA>
8.21

> <JCHEM_PHYSIOLOGICAL_CHARGE>
1

> <ALOGPS_LOGP>
4.15

> <JCHEM_LOGP>
3.69

> <ALOGPS_LOGS>
-4.2

> <JCHEM_POLARIZABILITY>
44.77

> <JCHEM_POLAR_SURFACE_AREA>
29.95

> <JCHEM_REFRACTIVITY>
116.1

> <JCHEM_ROTATABLE_BOND_COUNT>
6

> <ALOGPS_SOLUBILITY>
2.37e-02 g/l __ 

$$$$
