467
  Mrv0541 02231214422D          

 23 25  0  0  0  0            999 V2000
    7.1488    1.0625    0.0000 F   0  0  0  0  0  0  0  0  0  0  0  0
    4.2364    1.8676    0.0000 O   0  0  0  0  0  0  0  0  0  0  0  0
    2.0930    0.6301    0.0000 O   0  0  0  0  0  0  0  0  0  0  0  0
    2.8075    1.8676    0.0000 O   0  0  0  0  0  0  0  0  0  0  0  0
    7.1488   -0.6273    0.0000 N   0  0  0  0  0  0  0  0  0  0  0  0
    8.5746   -1.4579    0.0000 N   0  0  0  0  0  0  0  0  0  0  0  0
    4.2364   -0.6075    0.0000 N   0  0  0  0  0  0  0  0  0  0  0  0
    5.6884   -0.6360    0.0000 N   0  0  0  0  0  0  0  0  0  0  0  0
    7.1456   -1.4523    0.0000 C   0  0  0  0  0  0  0  0  0  0  0  0
    7.8649   -0.2176    0.0000 C   0  0  0  0  0  0  0  0  0  0  0  0
    7.8585   -1.8676    0.0000 C   0  0  0  0  0  0  0  0  0  0  0  0
    8.5778   -0.6329    0.0000 C   0  0  0  0  0  0  0  0  0  0  0  0
    6.4359   -0.2121    0.0000 C   0  0  0  0  0  0  0  0  0  0  0  0
    4.9509   -0.1949    0.0000 C   0  0  0  0  0  0  0  0  0  0  0  0
    4.9509    0.6301    0.0000 C   0  0  0  0  0  0  0  0  0  0  0  0
    6.4359    0.6473    0.0000 C   0  0  0  0  0  0  0  0  0  0  0  0
    5.6884    1.0712    0.0000 C   0  0  0  0  0  0  0  0  0  0  0  0
    4.2364   -1.4325    0.0000 C   0  0  0  0  0  0  0  0  0  0  0  0
    4.2364    1.0426    0.0000 C   0  0  0  0  0  0  0  0  0  0  0  0
    3.5220   -0.1949    0.0000 C   0  0  0  0  0  0  0  0  0  0  0  0
    3.5220    0.6301    0.0000 C   0  0  0  0  0  0  0  0  0  0  0  0
    3.5220   -1.8450    0.0000 C   0  0  0  0  0  0  0  0  0  0  0  0
    2.8075    1.0426    0.0000 C   0  0  0  0  0  0  0  0  0  0  0  0
  1 16  1  0  0  0  0
  2 19  2  0  0  0  0
  3 23  1  0  0  0  0
  4 23  2  0  0  0  0
  5  9  1  0  0  0  0
  5 10  1  0  0  0  0
  5 13  1  0  0  0  0
  6 11  1  0  0  0  0
  6 12  1  0  0  0  0
  7 14  1  0  0  0  0
  7 18  1  0  0  0  0
  7 20  1  0  0  0  0
  8 13  1  0  0  0  0
  8 14  2  0  0  0  0
  9 11  1  0  0  0  0
 10 12  1  0  0  0  0
 13 16  2  0  0  0  0
 14 15  1  0  0  0  0
 15 17  2  0  0  0  0
 15 19  1  0  0  0  0
 16 17  1  0  0  0  0
 18 22  1  0  0  0  0
 19 21  1  0  0  0  0
 20 21  2  0  0  0  0
 21 23  1  0  0  0  0
M  END
> <DRUGBANK_ID>
DB00467

> <DRUG_GROUPS>
approved

> <GENERIC_NAME>
Enoxacin

> <BRANDS>


> <CHEMICAL_FORMULA>
C15H17FN4O3

> <MOLECULAR_WEIGHT>
320.3189

> <EXACT_MASS>
320.128468635

> <IUPAC_NAME>
1-ethyl-6-fluoro-4-oxo-7-(piperazin-1-yl)-1,4-dihydro-1,8-naphthyridine-3-carboxylic acid

> <IUPAC_TRADITIONAL_NAME>
enoxacin

> <INCHI_IDENTIFIER>
InChI=1S/C15H17FN4O3/c1-2-19-8-10(15(22)23)12(21)9-7-11(16)14(18-13(9)19)20-5-3-17-4-6-20/h7-8,17H,2-6H2,1H3,(H,22,23)

> <INCHI_KEY>
InChIKey=IDYZIJYBMGIQMJ-UHFFFAOYSA-N

> <SMILES>
CCN1C=C(C(O)=O)C(=O)C2=CC(F)=C(N=C12)N1CCNCC1

> <JCHEM_ACCEPTOR_COUNT>
7

> <JCHEM_DONOR_COUNT>
2

> <JCHEM_ACIDIC_PKA>
5.5

> <JCHEM_BASIC_PKA>
8.59

> <JCHEM_PHYSIOLOGICAL_CHARGE>
0

> <ALOGPS_LOGP>
-0.97

> <JCHEM_LOGP>
-0.98

> <ALOGPS_LOGS>
-2.5

> <JCHEM_POLARIZABILITY>
31.63

> <JCHEM_POLAR_SURFACE_AREA>
85.77

> <JCHEM_REFRACTIVITY>
83.95

> <JCHEM_ROTATABLE_BOND_COUNT>
3

> <ALOGPS_SOLUBILITY>
1.09e+00 g/l __ 

$$$$
