491
  Mrv0541 02231214432D          

 14 14  0  0  1  0            999 V2000
    4.9509   -1.4438    0.0000 O   0  0  0  0  0  0  0  0  0  0  0  0
    3.5220   -2.2688    0.0000 O   0  0  0  0  0  0  0  0  0  0  0  0
    2.0930   -1.4438    0.0000 O   0  0  0  0  0  0  0  0  0  0  0  0
    4.9509    1.0313    0.0000 O   0  0  0  0  0  0  0  0  0  0  0  0
    2.8075    2.2688    0.0000 O   0  0  0  0  0  0  0  0  0  0  0  0
    3.5220    0.2063    0.0000 N   0  0  0  0  0  0  0  0  0  0  0  0
    4.2365   -0.2063    0.0000 C   0  0  1  0  0  0  0  0  0  0  0  0
    4.2365   -1.0313    0.0000 C   0  0  2  0  0  0  0  0  0  0  0  0
    3.5220   -1.4438    0.0000 C   0  0  1  0  0  0  0  0  0  0  0  0
    2.8075   -1.0313    0.0000 C   0  0  2  0  0  0  0  0  0  0  0  0
    2.8075   -0.2063    0.0000 C   0  0  0  0  0  0  0  0  0  0  0  0
    4.9509    0.2063    0.0000 C   0  0  0  0  0  0  0  0  0  0  0  0
    3.5220    1.0313    0.0000 C   0  0  0  0  0  0  0  0  0  0  0  0
    2.8075    1.4438    0.0000 C   0  0  0  0  0  0  0  0  0  0  0  0
  8  1  1  1  0  0  0
  9  2  1  6  0  0  0
 10  3  1  1  0  0  0
  4 12  1  0  0  0  0
  5 14  1  0  0  0  0
  6  7  1  0  0  0  0
  6 11  1  0  0  0  0
  6 13  1  0  0  0  0
  7  8  1  0  0  0  0
  7 12  1  6  0  0  0
  8  9  1  0  0  0  0
  9 10  1  0  0  0  0
 10 11  1  0  0  0  0
 13 14  1  0  0  0  0
M  END
> <DRUGBANK_ID>
DB00491

> <DRUG_GROUPS>
approved

> <GENERIC_NAME>
Miglitol

> <SYNONYMS>
Miglitol; Miglitolum

> <BRANDS>
Diaban; Diamig; Diaset; Diastabol; Elitox; Euglitol; Glycet; Glyset; Laiping; Migbose; Miglit; Mignar; Migtor; Misobit; Plumarol; Seibule

> <CHEMICAL_FORMULA>
C8H17NO5

> <MOLECULAR_WEIGHT>
207.2243

> <EXACT_MASS>
207.110672659

> <IUPAC_NAME>
(2R,3R,4R,5S)-1-(2-hydroxyethyl)-2-(hydroxymethyl)piperidine-3,4,5-triol

> <IUPAC_TRADITIONAL_NAME>
miglitol

> <INCHI_IDENTIFIER>
InChI=1S/C8H17NO5/c10-2-1-9-3-6(12)8(14)7(13)5(9)4-11/h5-8,10-14H,1-4H2/t5-,6+,7-,8-/m1/s1

> <INCHI_KEY>
InChIKey=IBAQFPQHRJAVAV-ULAWRXDQSA-N

> <SMILES>
OCCN1C[C@H](O)[C@@H](O)[C@H](O)[C@H]1CO

> <JCHEM_ACCEPTOR_COUNT>
6

> <JCHEM_DONOR_COUNT>
5

> <JCHEM_ACIDIC_PKA>
12.9

> <JCHEM_BASIC_PKA>
7.6

> <JCHEM_PHYSIOLOGICAL_CHARGE>
1

> <ALOGPS_LOGP>
-2.3

> <JCHEM_LOGP>
-3.2

> <ALOGPS_LOGS>
0.47

> <JCHEM_POLARIZABILITY>
20.81

> <JCHEM_POLAR_SURFACE_AREA>
104.39

> <JCHEM_REFRACTIVITY>
48.16

> <JCHEM_ROTATABLE_BOND_COUNT>
3

> <ALOGPS_SOLUBILITY>
6.10e+02 g/l __ 

$$$$
