360
  Mrv0541 02231214372D          

 17 18  0  0  1  0            999 V2000
    3.5216   -1.3795    0.0000 O   0  0  0  0  0  0  0  0  0  0  0  0
    2.0927   -0.5546    0.0000 O   0  0  0  0  0  0  0  0  0  0  0  0
    6.3926   -1.4080    0.0000 O   0  0  0  0  0  0  0  0  0  0  0  0
    4.9503   -0.5546    0.0000 N   0  0  0  0  0  0  0  0  0  0  0  0
    4.9503    1.0953    0.0000 N   0  0  0  0  0  0  0  0  0  0  0  0
    6.4022    1.1239    0.0000 N   0  0  0  0  0  0  0  0  0  0  0  0
    7.1496   -0.1593    0.0000 N   0  0  0  0  0  0  0  0  0  0  0  0
    7.8624    1.1152    0.0000 N   0  0  0  0  0  0  0  0  0  0  0  0
    4.2360   -0.1422    0.0000 C   0  0  0  0  0  0  0  0  0  0  0  0
    3.5216   -0.5546    0.0000 C   0  0  0  0  0  0  0  0  0  0  0  0
    4.2360    0.6828    0.0000 C   0  0  0  0  0  0  0  0  0  0  0  0
    2.8072   -0.1422    0.0000 C   0  0  0  0  0  0  0  0  0  0  0  0
    5.6648   -0.1422    0.0000 C   0  0  0  0  0  0  0  0  0  0  0  0
    5.6648    0.6828    0.0000 C   0  0  0  0  0  0  0  0  0  0  0  0
    2.8072    0.6828    0.0000 C   0  0  0  0  0  0  0  0  0  0  0  0
    6.4022   -0.5832    0.0000 C   0  0  0  0  0  0  0  0  0  0  0  0
    7.1496    0.6999    0.0000 C   0  0  0  0  0  0  0  0  0  0  0  0
  1 10  1  0  0  0  0
  2 12  1  0  0  0  0
  3 16  2  0  0  0  0
  4  9  1  0  0  0  0
  4 13  1  0  0  0  0
  5 11  1  0  0  0  0
  5 14  1  0  0  0  0
  6 14  1  0  0  0  0
  6 17  1  0  0  0  0
  7 16  1  0  0  0  0
  7 17  2  0  0  0  0
  8 17  1  0  0  0  0
  9 10  1  0  0  0  0
  9 11  1  0  0  0  0
 10 12  1  0  0  0  0
 12 15  1  0  0  0  0
 13 14  2  0  0  0  0
 13 16  1  0  0  0  0
M  END
> <DRUGBANK_ID>
DB00360

> <DRUG_GROUPS>
approved; investigational

> <GENERIC_NAME>
Tetrahydrobiopterin

> <SYNONYMS>
BH4

> <BRANDS>


> <CHEMICAL_FORMULA>
C9H15N5O3

> <MOLECULAR_WEIGHT>
241.2471

> <EXACT_MASS>
241.117489371

> <IUPAC_NAME>
2-amino-6-(1,2-dihydroxypropyl)-1,4,5,6,7,8-hexahydropteridin-4-one

> <IUPAC_TRADITIONAL_NAME>
2-amino-6-(1,2-dihydroxypropyl)-5,6,7,8-tetrahydro-1H-pteridin-4-one

> <INCHI_IDENTIFIER>
InChI=1S/C9H15N5O3/c1-3(15)6(16)4-2-11-7-5(12-4)8(17)14-9(10)13-7/h3-4,6,12,15-16H,2H2,1H3,(H4,10,11,13,14,17)

> <INCHI_KEY>
InChIKey=FNKQXYHWGSIFBK-UHFFFAOYSA-N

> <SMILES>
CC(O)C(O)C1CNC2=C(N1)C(=O)N=C(N)N2

> <JCHEM_ACCEPTOR_COUNT>
8

> <JCHEM_DONOR_COUNT>
6

> <JCHEM_ACIDIC_PKA>
10.01

> <JCHEM_BASIC_PKA>
3.58

> <JCHEM_PHYSIOLOGICAL_CHARGE>
0

> <ALOGPS_LOGP>
-1.7

> <JCHEM_LOGP>
-2.7

> <ALOGPS_LOGS>
-2

> <JCHEM_POLARIZABILITY>
23.4

> <JCHEM_POLAR_SURFACE_AREA>
132

> <JCHEM_REFRACTIVITY>
68.43

> <JCHEM_ROTATABLE_BOND_COUNT>
2

> <ALOGPS_SOLUBILITY>
2.21e+00 g/l __ 

$$$$
