492
  Mrv0541 02231214432D          

 39 41  0  0  1  0            999 V2000
    5.8714    1.5817    0.0000 P   0  0  0  0  0  0  0  0  0  0  0  0
    1.9507    0.9143    0.0000 O   0  0  0  0  0  0  0  0  0  0  0  0
    4.2305    1.7541    0.0000 O   0  0  0  0  0  0  0  0  0  0  0  0
    3.1067    1.7541    0.0000 O   0  0  0  0  0  0  0  0  0  0  0  0
    6.3564    2.2491    0.0000 O   0  0  0  0  0  0  0  0  0  0  0  0
    5.2040    2.0667    0.0000 O   0  0  0  0  0  0  0  0  0  0  0  0
    7.6618    2.8304    0.0000 O   0  0  0  0  0  0  0  0  0  0  0  0
    8.8179    1.9904    0.0000 O   0  0  0  0  0  0  0  0  0  0  0  0
    4.0811    0.3331    0.0000 N   0  0  0  0  0  0  0  0  0  0  0  0
    3.6686   -0.9366    0.0000 C   0  0  2  0  0  0  0  0  0  0  0  0
    3.6686   -1.7616    0.0000 C   0  0  0  0  0  0  0  0  0  0  0  0
    3.0011   -0.4516    0.0000 C   0  0  0  0  0  0  0  0  0  0  0  0
    4.3361   -0.4516    0.0000 C   0  0  0  0  0  0  0  0  0  0  0  0
    2.9541   -2.1741    0.0000 C   0  0  0  0  0  0  0  0  0  0  0  0
    4.3831   -2.1741    0.0000 C   0  0  0  0  0  0  0  0  0  0  0  0
    3.2561    0.3331    0.0000 C   0  0  1  0  0  0  0  0  0  0  0  0
    2.9541   -2.9991    0.0000 C   0  0  0  0  0  0  0  0  0  0  0  0
    4.3831   -2.9991    0.0000 C   0  0  0  0  0  0  0  0  0  0  0  0
    3.6686   -3.4116    0.0000 C   0  0  0  0  0  0  0  0  0  0  0  0
    4.5660    1.0005    0.0000 C   0  0  0  0  0  0  0  0  0  0  0  0
    2.7711    1.0005    0.0000 C   0  0  0  0  0  0  0  0  0  0  0  0
    5.3865    0.9143    0.0000 C   0  0  0  0  0  0  0  0  0  0  0  0
    6.5389    1.0968    0.0000 C   0  0  0  0  0  0  0  0  0  0  0  0
    6.4527    0.2763    0.0000 C   0  0  0  0  0  0  0  0  0  0  0  0
    7.1769    2.1629    0.0000 C   0  0  0  0  0  0  0  0  0  0  0  0
    7.1201   -0.2086    0.0000 C   0  0  0  0  0  0  0  0  0  0  0  0
    7.5125    1.4092    0.0000 C   0  0  0  0  0  0  0  0  0  0  0  0
    7.0339   -1.0291    0.0000 C   0  0  0  0  0  0  0  0  0  0  0  0
    7.0275    0.7418    0.0000 C   0  0  0  0  0  0  0  0  0  0  0  0
    8.3329    1.3230    0.0000 C   0  0  0  0  0  0  0  0  0  0  0  0
    7.7013   -1.5141    0.0000 C   0  0  0  0  0  0  0  0  0  0  0  0
    8.4823    2.7442    0.0000 C   0  0  0  0  0  0  0  0  0  0  0  0
    8.4551   -1.1785    0.0000 C   0  0  0  0  0  0  0  0  0  0  0  0
    7.6151   -2.3345    0.0000 C   0  0  0  0  0  0  0  0  0  0  0  0
    8.9672    3.4116    0.0000 C   0  0  0  0  0  0  0  0  0  0  0  0
    9.1225   -1.6635    0.0000 C   0  0  0  0  0  0  0  0  0  0  0  0
    8.2825   -2.8195    0.0000 C   0  0  0  0  0  0  0  0  0  0  0  0
    9.0363   -2.4839    0.0000 C   0  0  0  0  0  0  0  0  0  0  0  0
    9.7877    3.3253    0.0000 C   0  0  0  0  0  0  0  0  0  0  0  0
  1  5  1  0  0  0  0
  1  6  2  0  0  0  0
  1 22  1  0  0  0  0
  1 23  1  0  0  0  0
  2 21  1  0  0  0  0
  3 20  2  0  0  0  0
  4 21  2  0  0  0  0
  5 25  1  0  0  0  0
  7 25  1  0  0  0  0
  7 32  1  0  0  0  0
  8 32  2  0  0  0  0
  9 13  1  0  0  0  0
  9 16  1  0  0  0  0
  9 20  1  0  0  0  0
 10 11  1  6  0  0  0
 10 12  1  0  0  0  0
 10 13  1  0  0  0  0
 11 14  1  0  0  0  0
 11 15  1  0  0  0  0
 12 16  1  0  0  0  0
 14 17  1  0  0  0  0
 15 18  1  0  0  0  0
 16 21  1  1  0  0  0
 17 19  1  0  0  0  0
 18 19  1  0  0  0  0
 20 22  1  0  0  0  0
 23 24  1  0  0  0  0
 24 26  1  0  0  0  0
 25 27  1  0  0  0  0
 26 28  1  0  0  0  0
 27 29  1  0  0  0  0
 27 30  1  0  0  0  0
 28 31  1  0  0  0  0
 31 33  2  0  0  0  0
 31 34  1  0  0  0  0
 32 35  1  0  0  0  0
 33 36  1  0  0  0  0
 34 37  2  0  0  0  0
 35 39  1  0  0  0  0
 36 38  2  0  0  0  0
 37 38  1  0  0  0  0
M  END
> <DRUGBANK_ID>
DB00492

> <DRUG_GROUPS>
approved

> <GENERIC_NAME>
Fosinopril

> <SALTS>
Fosinopril Sodium

> <BRANDS>
Acecor; Monopril; Staril

> <CHEMICAL_FORMULA>
C30H46NO7P

> <MOLECULAR_WEIGHT>
563.6625

> <EXACT_MASS>
563.301189343

> <IUPAC_NAME>
(2S,4S)-4-cyclohexyl-1-(2-{[2-methyl-1-(propanoyloxy)propoxy](4-phenylbutyl)phosphoryl}acetyl)pyrrolidine-2-carboxylic acid

> <IUPAC_TRADITIONAL_NAME>
(2S,4S)-4-cyclohexyl-1-{2-[2-methyl-1-(propanoyloxy)propoxy(4-phenylbutyl)phosphoryl]acetyl}pyrrolidine-2-carboxylic acid

> <INCHI_IDENTIFIER>
InChI=1S/C30H46NO7P/c1-4-28(33)37-30(22(2)3)38-39(36,18-12-11-15-23-13-7-5-8-14-23)21-27(32)31-20-25(19-26(31)29(34)35)24-16-9-6-10-17-24/h5,7-8,13-14,22,24-26,30H,4,6,9-12,15-21H2,1-3H3,(H,34,35)/t25-,26+,30?,39?/m1/s1

> <INCHI_KEY>
InChIKey=BIDNLKIUORFRQP-FKDWWROVSA-N

> <SMILES>
CCC(=O)OC(OP(=O)(CCCCC1=CC=CC=C1)CC(=O)N1C[C@@H](C[C@H]1C(O)=O)C1CCCCC1)C(C)C

> <JCHEM_ACCEPTOR_COUNT>
5

> <JCHEM_DONOR_COUNT>
1

> <JCHEM_ACIDIC_PKA>
3.87

> <JCHEM_BASIC_PKA>
-4.4

> <JCHEM_PHYSIOLOGICAL_CHARGE>
-1

> <ALOGPS_LOGP>
4.71

> <JCHEM_LOGP>
5.49

> <ALOGPS_LOGS>
-5.8

> <JCHEM_POLARIZABILITY>
61.17

> <JCHEM_POLAR_SURFACE_AREA>
110.21

> <JCHEM_REFRACTIVITY>
149.12

> <JCHEM_ROTATABLE_BOND_COUNT>
15

> <ALOGPS_SOLUBILITY>
1.01e-03 g/l __ 

$$$$
