502
  Mrv0541 02231214432D          

 26 28  0  0  0  0            999 V2000
    5.4436    5.1416    0.0000 Cl   0  0  0  0  0  0  0  0  0  0  0  0
    2.3645   -5.1416    0.0000 F    0  0  0  0  0  0  0  0  0  0  0  0
    3.3810    2.9981    0.0000 O    0  0  0  0  0  0  0  0  0  0  0  0
    1.6500   -1.4290    0.0000 O    0  0  0  0  0  0  0  0  0  0  0  0
    3.7935    0.6335    0.0000 N    0  0  0  0  0  0  0  0  0  0  0  0
    3.7935    2.2836    0.0000 C    0  0  0  0  0  0  0  0  0  0  0  0
    3.0791    1.8711    0.0000 C    0  0  0  0  0  0  0  0  0  0  0  0
    4.5080    1.8711    0.0000 C    0  0  0  0  0  0  0  0  0  0  0  0
    3.0791    1.0460    0.0000 C    0  0  0  0  0  0  0  0  0  0  0  0
    4.5080    1.0460    0.0000 C    0  0  0  0  0  0  0  0  0  0  0  0
    3.7935   -0.1915    0.0000 C    0  0  0  0  0  0  0  0  0  0  0  0
    4.2060    2.9981    0.0000 C    0  0  0  0  0  0  0  0  0  0  0  0
    3.0791   -0.6040    0.0000 C    0  0  0  0  0  0  0  0  0  0  0  0
    3.7935    3.7126    0.0000 C    0  0  0  0  0  0  0  0  0  0  0  0
    5.0310    2.9981    0.0000 C    0  0  0  0  0  0  0  0  0  0  0  0
    3.0791   -1.4290    0.0000 C    0  0  0  0  0  0  0  0  0  0  0  0
    4.2060    4.4270    0.0000 C    0  0  0  0  0  0  0  0  0  0  0  0
    5.4436    3.7126    0.0000 C    0  0  0  0  0  0  0  0  0  0  0  0
    2.3645   -1.8415    0.0000 C    0  0  0  0  0  0  0  0  0  0  0  0
    5.0310    4.4270    0.0000 C    0  0  0  0  0  0  0  0  0  0  0  0
    2.3645   -2.6665    0.0000 C    0  0  0  0  0  0  0  0  0  0  0  0
    3.0791   -3.0791    0.0000 C    0  0  0  0  0  0  0  0  0  0  0  0
    1.6500   -3.0791    0.0000 C    0  0  0  0  0  0  0  0  0  0  0  0
    3.0791   -3.9041    0.0000 C    0  0  0  0  0  0  0  0  0  0  0  0
    1.6500   -3.9041    0.0000 C    0  0  0  0  0  0  0  0  0  0  0  0
    2.3645   -4.3166    0.0000 C    0  0  0  0  0  0  0  0  0  0  0  0
  1 20  1  0  0  0  0
  2 26  1  0  0  0  0
  3  6  1  0  0  0  0
  4 19  2  0  0  0  0
  5  9  1  0  0  0  0
  5 10  1  0  0  0  0
  5 11  1  0  0  0  0
  6  7  1  0  0  0  0
  6  8  1  0  0  0  0
  6 12  1  0  0  0  0
  7  9  1  0  0  0  0
  8 10  1  0  0  0  0
 11 13  1  0  0  0  0
 12 14  2  0  0  0  0
 12 15  1  0  0  0  0
 13 16  1  0  0  0  0
 14 17  1  0  0  0  0
 15 18  2  0  0  0  0
 16 19  1  0  0  0  0
 17 20  2  0  0  0  0
 18 20  1  0  0  0  0
 19 21  1  0  0  0  0
 21 22  2  0  0  0  0
 21 23  1  0  0  0  0
 22 24  1  0  0  0  0
 23 25  2  0  0  0  0
 24 26  2  0  0  0  0
 25 26  1  0  0  0  0
M  END
> <DRUGBANK_ID>
DB00502

> <DRUG_GROUPS>
approved

> <GENERIC_NAME>
Haloperidol

> <BRANDS>
Aloperidin; Bioperidolo; Brotopon; Dozic; Duraperidol; Einalon S; Eukystol; Haldol; Halosten; Keselan; Linton; Peluces; Serenace; Sigaperidol

> <CHEMICAL_FORMULA>
C21H23ClFNO2

> <MOLECULAR_WEIGHT>
375.864

> <EXACT_MASS>
375.140134897

> <IUPAC_NAME>
4-[4-(4-chlorophenyl)-4-hydroxypiperidin-1-yl]-1-(4-fluorophenyl)butan-1-one

> <IUPAC_TRADITIONAL_NAME>
haloperidol

> <INCHI_IDENTIFIER>
InChI=1S/C21H23ClFNO2/c22-18-7-5-17(6-8-18)21(26)11-14-24(15-12-21)13-1-2-20(25)16-3-9-19(23)10-4-16/h3-10,26H,1-2,11-15H2

> <INCHI_KEY>
InChIKey=LNEPOXFFQSENCJ-UHFFFAOYSA-N

> <SMILES>
OC1(CCN(CCCC(=O)C2=CC=C(F)C=C2)CC1)C1=CC=C(Cl)C=C1

> <JCHEM_ACCEPTOR_COUNT>
3

> <JCHEM_DONOR_COUNT>
1

> <JCHEM_ACIDIC_PKA>
13.96

> <JCHEM_BASIC_PKA>
8.05

> <JCHEM_PHYSIOLOGICAL_CHARGE>
1

> <ALOGPS_LOGP>
3.7

> <JCHEM_LOGP>
3.66

> <ALOGPS_LOGS>
-4.9

> <JCHEM_POLARIZABILITY>
39.15

> <JCHEM_POLAR_SURFACE_AREA>
40.54

> <JCHEM_REFRACTIVITY>
102.59

> <JCHEM_ROTATABLE_BOND_COUNT>
6

> <ALOGPS_SOLUBILITY>
4.46e-03 g/l __ 

$$$$
