727
  Mrv0541 02231214572D          

 15 14  0  0  0  0            999 V2000
    5.2224    1.0313    0.0000 O   0  0  0  0  0  0  0  0  0  0  0  0
    3.0791    0.6188    0.0000 O   0  0  0  0  0  0  0  0  0  0  0  0
    3.7935   -0.6188    0.0000 O   0  0  0  0  0  0  0  0  0  0  0  0
    6.6515    1.0313    0.0000 O   0  5  0  0  0  0  0  0  0  0  0  0
    5.9370   -0.2063    0.0000 O   0  0  0  0  0  0  0  0  0  0  0  0
    1.6500    0.6188    0.0000 O   0  5  0  0  0  0  0  0  0  0  0  0
    3.0791   -1.8563    0.0000 O   0  5  0  0  0  0  0  0  0  0  0  0
    2.3645    1.8563    0.0000 O   0  0  0  0  0  0  0  0  0  0  0  0
    4.5080   -1.8563    0.0000 O   0  0  0  0  0  0  0  0  0  0  0  0
    5.9370    0.6188    0.0000 N   0  3  0  0  0  0  0  0  0  0  0  0
    2.3645    1.0313    0.0000 N   0  3  0  0  0  0  0  0  0  0  0  0
    3.7935   -1.4438    0.0000 N   0  3  0  0  0  0  0  0  0  0  0  0
    4.5080    0.6188    0.0000 C   0  0  0  0  0  0  0  0  0  0  0  0
    3.7935    1.0313    0.0000 C   0  0  0  0  0  0  0  0  0  0  0  0
    4.5080   -0.2063    0.0000 C   0  0  0  0  0  0  0  0  0  0  0  0
  1 10  1  0  0  0  0
  1 13  1  0  0  0  0
  2 11  1  0  0  0  0
  2 14  1  0  0  0  0
  3 12  1  0  0  0  0
  3 15  1  0  0  0  0
  4 10  1  0  0  0  0
  5 10  2  0  0  0  0
  6 11  1  0  0  0  0
  7 12  1  0  0  0  0
  8 11  2  0  0  0  0
  9 12  2  0  0  0  0
 13 14  1  0  0  0  0
 13 15  1  0  0  0  0
M  END
> <DRUGBANK_ID>
DB00727

> <DRUG_GROUPS>
approved; investigational

> <GENERIC_NAME>
Nitroglycerin

> <SYNONYMS>
Glyceroli trinitratis ; Glyceroltrinitrat; Glyceryl trinitrate; NG; Nitroglicerina; Nitroglycerol; Nitromed; Trinitrine; Trinitroglycerin

> <BRANDS>
Deponit; Dermatrans; Gen-Nitro; Glytrin; Glytrin Spray; Minitran; Natispray; Nitro-Dur; Nitrocap; Nitroderm TTS; Nitrolingual Pump Spray; Rectogesic; Rhotrimine; Stangyl; Surmontil; Transderm-Nitro; Tridil; Trimonit; Trinipatch; Triniplas; Trinispray; Trinitrin Simplex Laleuf; Trinitron; Trinitrosan; Trintek; Trocer; Trocer SR; Vasolator; Vasovin; Venitrin; Vernies; Willlong

> <CHEMICAL_FORMULA>
C3H5N3O9

> <MOLECULAR_WEIGHT>
227.0865

> <EXACT_MASS>
227.002578773

> <IUPAC_NAME>
2,3-bis(nitrooxy)propyl nitrate

> <IUPAC_TRADITIONAL_NAME>
2,3-bis(nitrooxy)propyl nitrate

> <INCHI_IDENTIFIER>
InChI=1S/C3H5N3O9/c7-4(8)13-1-3(15-6(11)12)2-14-5(9)10/h3H,1-2H2

> <INCHI_KEY>
InChIKey=SNIOPGDIGTZGOP-UHFFFAOYSA-N

> <SMILES>
[O-][N+](=O)OCC(CO[N+]([O-])=O)O[N+]([O-])=O

> <JCHEM_ACCEPTOR_COUNT>
9

> <JCHEM_DONOR_COUNT>
0

> <JCHEM_BASIC_PKA>
-5.6

> <JCHEM_PHYSIOLOGICAL_CHARGE>
0

> <ALOGPS_LOGP>
1.25

> <JCHEM_LOGP>
0.94

> <ALOGPS_LOGS>
-3

> <JCHEM_POLARIZABILITY>
15.56

> <JCHEM_POLAR_SURFACE_AREA>
165.15

> <JCHEM_REFRACTIVITY>
40.6

> <JCHEM_ROTATABLE_BOND_COUNT>
8

> <ALOGPS_SOLUBILITY>
2.04e-01 g/l __ 

$$$$
