620
  Mrv0541 02231214492D          

 30 33  0  0  1  0            999 V2000
    4.1400   -0.1892    0.0000 F   0  0  0  0  0  0  0  0  0  0  0  0
    6.6263    1.0402    0.0000 O   0  0  0  0  0  0  0  0  0  0  0  0
    3.9559    0.4163    0.0000 O   0  0  0  0  0  0  0  0  0  0  0  0
    8.1864   -0.4087    0.0000 O   0  0  0  0  0  0  0  0  0  0  0  0
    8.3013    0.4021    0.0000 O   0  0  0  0  0  0  0  0  0  0  0  0
    8.1317    2.0434    0.0000 O   0  0  0  0  0  0  0  0  0  0  0  0
    1.6500   -2.5144    0.0000 O   0  0  0  0  0  0  0  0  0  0  0  0
    6.0993    0.0038    0.0000 C   0  0  1  0  0  0  0  0  0  0  0  0
    6.0993   -0.8212    0.0000 C   0  0  2  0  0  0  0  0  0  0  0  0
    5.3849   -1.2337    0.0000 C   0  0  1  0  0  0  0  0  0  0  0  0
    4.6703   -0.8212    0.0000 C   0  0  1  0  0  0  0  0  0  0  0  0
    6.8799    0.2553    0.0000 C   0  0  1  0  0  0  0  0  0  0  0  0
    5.3849    0.4163    0.0000 C   0  0  0  0  0  0  0  0  0  0  0  0
    6.8799   -1.0726    0.0000 C   0  0  0  0  0  0  0  0  0  0  0  0
    4.6703    0.0038    0.0000 C   0  0  2  0  0  0  0  0  0  0  0  0
    7.3614   -0.4087    0.0000 C   0  0  1  0  0  0  0  0  0  0  0  0
    3.9196   -1.2393    0.0000 C   0  0  1  0  0  0  0  0  0  0  0  0
    5.3981   -2.0929    0.0000 C   0  0  0  0  0  0  0  0  0  0  0  0
    6.0993    0.8288    0.0000 C   0  0  0  0  0  0  0  0  0  0  0  0
    4.6572   -2.5283    0.0000 C   0  0  0  0  0  0  0  0  0  0  0  0
    3.9130   -2.0986    0.0000 C   0  0  0  0  0  0  0  0  0  0  0  0
    7.5482    0.7390    0.0000 C   0  0  0  0  0  0  0  0  0  0  0  0
    3.6435   -0.4619    0.0000 C   0  0  0  0  0  0  0  0  0  0  0  0
    3.1550   -0.7739    0.0000 C   0  0  0  0  0  0  0  0  0  0  0  0
    3.1413   -2.5521    0.0000 C   0  0  0  0  0  0  0  0  0  0  0  0
    7.4634    1.5596    0.0000 C   0  0  0  0  0  0  0  0  0  0  0  0
    2.3730   -1.2095    0.0000 C   0  0  0  0  0  0  0  0  0  0  0  0
    2.3660   -2.1046    0.0000 C   0  0  0  0  0  0  0  0  0  0  0  0
    6.1691   -1.4775    0.0000 H   0  0  0  0  0  0  0  0  0  0  0  0
    5.9589   -1.5593    0.0000 H   0  0  0  0  0  0  0  0  0  0  0  0
 11  1  1  6  0  0  0
 12  2  1  6  0  0  0
 15  3  1  1  0  0  0
 16  4  1  6  0  0  0
  5 22  2  0  0  0  0
  6 26  1  0  0  0  0
  7 28  2  0  0  0  0
  8  9  1  0  0  0  0
  8 12  1  0  0  0  0
  8 13  1  0  0  0  0
  8 19  1  1  0  0  0
  9 10  1  0  0  0  0
  9 14  1  0  0  0  0
  9 29  1  6  0  0  0
 10 11  1  0  0  0  0
 10 18  1  0  0  0  0
 10 30  1  1  0  0  0
 11 15  1  0  0  0  0
 11 17  1  0  0  0  0
 12 16  1  0  0  0  0
 12 22  1  0  0  0  0
 13 15  1  0  0  0  0
 14 16  1  0  0  0  0
 17 21  1  0  0  0  0
 17 23  1  1  0  0  0
 17 24  1  0  0  0  0
 18 20  1  0  0  0  0
 20 21  1  0  0  0  0
 21 25  2  0  0  0  0
 22 26  1  0  0  0  0
 24 27  2  0  0  0  0
 25 28  1  0  0  0  0
 27 28  1  0  0  0  0
M  END
> <DRUGBANK_ID>
DB00620

> <DRUG_GROUPS>
approved

> <GENERIC_NAME>
Triamcinolone

> <SYNONYMS>
9α-fluoro-16α-hydroxyprednisolone; Fluoxyprednisolone; Tiamcinolonum; Triamcinolona; Triamcinolonum

> <SALTS>
Triamcinolone acetonide; Triamcinolone diacetate; Triamcinolone hexacetonide

> <BRANDS>
Aristocort; Aristospan; Azmacort; Delphicort; Flutex; Kenacort; Kenalog; Nasacort; Omcilon-A; Oracort; Oralone; Tri-Nasal; Triacet; Triacort; Triaderm; Tricortone; Triderm; Trilone; Tristoject

> <CHEMICAL_FORMULA>
C21H27FO6

> <MOLECULAR_WEIGHT>
394.4339

> <EXACT_MASS>
394.179166801

> <IUPAC_NAME>
(1R,2S,10S,11S,13R,14S,15S,17S)-1-fluoro-13,14,17-trihydroxy-14-(2-hydroxyacetyl)-2,15-dimethyltetracyclo[8.7.0.0^{2,7}.0^{11,15}]heptadeca-3,6-dien-5-one

> <IUPAC_TRADITIONAL_NAME>
triamcinolone

> <INCHI_IDENTIFIER>
InChI=1S/C21H27FO6/c1-18-6-5-12(24)7-11(18)3-4-13-14-8-15(25)21(28,17(27)10-23)19(14,2)9-16(26)20(13,18)22/h5-7,13-16,23,25-26,28H,3-4,8-10H2,1-2H3/t13-,14-,15+,16-,18-,19-,20-,21-/m0/s1

> <INCHI_KEY>
InChIKey=GFNANZIMVAIWHM-OBYCQNJPSA-N

> <SMILES>
[H][C@@]12C[C@@H](O)[C@](O)(C(=O)CO)[C@@]1(C)C[C@H](O)[C@@]1(F)[C@@]2([H])CCC2=CC(=O)C=C[C@]12C

> <JCHEM_ACCEPTOR_COUNT>
6

> <JCHEM_DONOR_COUNT>
4

> <JCHEM_ACIDIC_PKA>
11.75

> <JCHEM_BASIC_PKA>
-3.3

> <JCHEM_PHYSIOLOGICAL_CHARGE>
0

> <ALOGPS_LOGP>
0.84

> <JCHEM_LOGP>
0.24

> <ALOGPS_LOGS>
-2.7

> <JCHEM_POLARIZABILITY>
39.79

> <JCHEM_POLAR_SURFACE_AREA>
115.06

> <JCHEM_REFRACTIVITY>
99.38

> <JCHEM_ROTATABLE_BOND_COUNT>
2

> <ALOGPS_SOLUBILITY>
8.47e-01 g/l __ 

$$$$
