2723601
  Mrv0541 02231214372D          

 11 12  0  0  0  0            999 V2000
    3.5220    1.4933    0.0000 S   0  0  0  0  0  0  0  0  0  0  0  0
    3.5220   -0.9818    0.0000 N   0  0  0  0  0  0  0  0  0  0  0  0
    5.0171    0.5071    0.0000 N   0  0  0  0  0  0  0  0  0  0  0  0
    5.0171   -0.8206    0.0000 N   0  0  0  0  0  0  0  0  0  0  0  0
    2.8075    0.2558    0.0000 N   0  0  0  0  0  0  0  0  0  0  0  0
    2.0930   -0.9818    0.0000 N   0  0  0  0  0  0  0  0  0  0  0  0
    4.2365    0.2558    0.0000 C   0  0  0  0  0  0  0  0  0  0  0  0
    4.2365   -0.5693    0.0000 C   0  0  0  0  0  0  0  0  0  0  0  0
    3.5220    0.6683    0.0000 C   0  0  0  0  0  0  0  0  0  0  0  0
    2.8075   -0.5693    0.0000 C   0  0  0  0  0  0  0  0  0  0  0  0
    5.4986   -0.1568    0.0000 C   0  0  0  0  0  0  0  0  0  0  0  0
  1  9  2  0  0  0  0
  2  8  1  0  0  0  0
  2 10  1  0  0  0  0
  3  7  1  0  0  0  0
  3 11  1  0  0  0  0
  4  8  1  0  0  0  0
  4 11  2  0  0  0  0
  5  9  1  0  0  0  0
  5 10  2  0  0  0  0
  6 10  1  0  0  0  0
  7  8  2  0  0  0  0
  7  9  1  0  0  0  0
M  END
> <DRUGBANK_ID>
DB00352

> <DRUG_GROUPS>
approved

> <GENERIC_NAME>
Thioguanine

> <SYNONYMS>


> <BRANDS>


> <CHEMICAL_FORMULA>
C5H5N5S

> <MOLECULAR_WEIGHT>
167.192

> <EXACT_MASS>
167.026565875

> <IUPAC_NAME>
2-amino-6,7-dihydro-3H-purine-6-thione

> <IUPAC_TRADITIONAL_NAME>
thioguanine

> <INCHI_IDENTIFIER>
InChI=1S/C5H5N5S/c6-5-9-3-2(4(11)10-5)7-1-8-3/h1H,(H4,6,7,8,9,10,11)

> <INCHI_KEY>
InChIKey=WYWHKKSPHMUBEB-UHFFFAOYSA-N

> <SMILES>
NC1=NC(=S)C2=C(N1)N=CN2

> <JCHEM_ACCEPTOR_COUNT>
4

> <JCHEM_DONOR_COUNT>
3

> <JCHEM_ACIDIC_PKA>
10.53

> <JCHEM_BASIC_PKA>
3.7

> <JCHEM_PHYSIOLOGICAL_CHARGE>
0

> <ALOGPS_LOGP>
-0.36

> <JCHEM_LOGP>
-0.35

> <ALOGPS_LOGS>
-2.3

> <JCHEM_POLARIZABILITY>
15.65

> <JCHEM_POLAR_SURFACE_AREA>
79.09

> <JCHEM_REFRACTIVITY>
46.89

> <JCHEM_ROTATABLE_BOND_COUNT>
0

> <ALOGPS_SOLUBILITY>
8.34e-01 g/l __ 

$$$$
