237
  Mrv0541 02231214322D          

 15 15  0  0  1  0            999 V2000
    4.5080    0.1658    0.0000 O   0  0  0  0  0  0  0  0  0  0  0  0
    1.6500    0.1658    0.0000 O   0  0  0  0  0  0  0  0  0  0  0  0
    3.0791   -2.3092    0.0000 O   0  0  0  0  0  0  0  0  0  0  0  0
    3.7935   -1.0717    0.0000 N   0  0  0  0  0  0  0  0  0  0  0  0
    2.3645   -1.0717    0.0000 N   0  0  0  0  0  0  0  0  0  0  0  0
    3.0791    0.1658    0.0000 C   0  0  0  0  0  0  0  0  0  0  0  0
    3.4916    0.8803    0.0000 C   0  0  0  0  0  0  0  0  0  0  0  0
    2.6665    0.8803    0.0000 C   0  0  0  0  0  0  0  0  0  0  0  0
    3.0791    1.5948    0.0000 C   0  0  0  0  0  0  0  0  0  0  0  0
    3.7935   -0.2467    0.0000 C   0  0  0  0  0  0  0  0  0  0  0  0
    2.3645   -0.2467    0.0000 C   0  0  0  0  0  0  0  0  0  0  0  0
    4.3166    0.8803    0.0000 C   0  0  0  0  0  0  0  0  0  0  0  0
    1.8415    0.8803    0.0000 C   0  0  0  0  0  0  0  0  0  0  0  0
    3.4916    2.3092    0.0000 C   0  0  0  0  0  0  0  0  0  0  0  0
    3.0791   -1.4842    0.0000 C   0  0  0  0  0  0  0  0  0  0  0  0
  1 10  2  0  0  0  0
  2 11  2  0  0  0  0
  3 15  2  0  0  0  0
  4 10  1  0  0  0  0
  4 15  1  0  0  0  0
  5 11  1  0  0  0  0
  5 15  1  0  0  0  0
  6  7  1  0  0  0  0
  6  8  1  0  0  0  0
  6 10  1  0  0  0  0
  6 11  1  0  0  0  0
  7  9  1  0  0  0  0
  7 12  1  0  0  0  0
  8 13  1  0  0  0  0
  9 14  1  0  0  0  0
M  END
> <DRUGBANK_ID>
DB00237

> <DRUG_GROUPS>
approved; illicit

> <GENERIC_NAME>
Butabarbital

> <SYNONYMS>
Secbutabarbital

> <SALTS>
Butabarbital Sodium

> <BRANDS>
Butalan; Butisol; Sarisol No. 2

> <CHEMICAL_FORMULA>
C10H16N2O3

> <MOLECULAR_WEIGHT>
212.2456

> <EXACT_MASS>
212.116092388

> <IUPAC_NAME>
5-(butan-2-yl)-5-ethyl-1,3-diazinane-2,4,6-trione

> <IUPAC_TRADITIONAL_NAME>
butabarbital

> <INCHI_IDENTIFIER>
InChI=1S/C10H16N2O3/c1-4-6(3)10(5-2)7(13)11-9(15)12-8(10)14/h6H,4-5H2,1-3H3,(H2,11,12,13,14,15)

> <INCHI_KEY>
InChIKey=ZRIHAIZYIMGOAB-UHFFFAOYSA-N

> <SMILES>
CCC(C)C1(CC)C(=O)NC(=O)NC1=O

> <JCHEM_ACCEPTOR_COUNT>
3

> <JCHEM_DONOR_COUNT>
2

> <JCHEM_ACIDIC_PKA>
8.48

> <JCHEM_PHYSIOLOGICAL_CHARGE>
0

> <ALOGPS_LOGP>
1.7

> <JCHEM_LOGP>
1.45

> <ALOGPS_LOGS>
-2.2

> <JCHEM_POLARIZABILITY>
21.41

> <JCHEM_POLAR_SURFACE_AREA>
75.27

> <JCHEM_REFRACTIVITY>
53.4

> <JCHEM_ROTATABLE_BOND_COUNT>
3

> <ALOGPS_SOLUBILITY>
1.39e+00 g/l __ 

$$$$
