649
  Mrv0541 02231214522D          

 16 17  0  0  1  0            999 V2000
    3.7465   -0.5827    0.0000 O   0  0  0  0  0  0  0  0  0  0  0  0
    3.6409   -2.7885    0.0000 O   0  0  0  0  0  0  0  0  0  0  0  0
    1.6500    0.7273    0.0000 O   0  0  0  0  0  0  0  0  0  0  0  0
    3.0791    3.2023    0.0000 O   0  0  0  0  0  0  0  0  0  0  0  0
    3.0791    0.7273    0.0000 N   0  0  0  0  0  0  0  0  0  0  0  0
    2.3645    1.9648    0.0000 N   0  0  0  0  0  0  0  0  0  0  0  0
    3.0791   -0.0978    0.0000 C   0  0  1  0  0  0  0  0  0  0  0  0
    3.4916   -1.3673    0.0000 C   0  0  1  0  0  0  0  0  0  0  0  0
    2.4115   -0.5827    0.0000 C   0  0  0  0  0  0  0  0  0  0  0  0
    2.6665   -1.3673    0.0000 C   0  0  0  0  0  0  0  0  0  0  0  0
    3.9764   -2.0348    0.0000 C   0  0  0  0  0  0  0  0  0  0  0  0
    3.7935    1.1398    0.0000 C   0  0  0  0  0  0  0  0  0  0  0  0
    2.3645    1.1398    0.0000 C   0  0  0  0  0  0  0  0  0  0  0  0
    3.7935    1.9648    0.0000 C   0  0  0  0  0  0  0  0  0  0  0  0
    3.0791    2.3773    0.0000 C   0  0  0  0  0  0  0  0  0  0  0  0
    4.5080    2.3773    0.0000 C   0  0  0  0  0  0  0  0  0  0  0  0
  1  7  1  0  0  0  0
  1  8  1  0  0  0  0
  2 11  1  0  0  0  0
  3 13  2  0  0  0  0
  4 15  2  0  0  0  0
  7  5  1  6  0  0  0
  5 12  1  0  0  0  0
  5 13  1  0  0  0  0
  6 13  1  0  0  0  0
  6 15  1  0  0  0  0
  7  9  1  0  0  0  0
  8 10  1  0  0  0  0
  8 11  1  6  0  0  0
  9 10  2  0  0  0  0
 12 14  2  0  0  0  0
 14 15  1  0  0  0  0
 14 16  1  0  0  0  0
M  END
> <DRUGBANK_ID>
DB00649

> <DRUG_GROUPS>
approved; investigational

> <GENERIC_NAME>
Stavudine

> <SYNONYMS>
Estavudina; Sanilvudine; Stavudin; Stavudine; Stavudinum

> <BRANDS>
Actastav; Ai Fu Ding; Avostav; Estavudox; Exvihr; Flamistav; Landstav; Lion; Mai Si Ting; S.T.V.; Sazi; Stadine; Stag; Stamar; Stavex; Stavir; Stavubergen; Zerit; Zerit XR

> <CHEMICAL_FORMULA>
C10H12N2O4

> <MOLECULAR_WEIGHT>
224.2133

> <EXACT_MASS>
224.079706882

> <IUPAC_NAME>
1-[(2R,5S)-5-(hydroxymethyl)-2,5-dihydrofuran-2-yl]-5-methyl-1,2,3,4-tetrahydropyrimidine-2,4-dione

> <IUPAC_TRADITIONAL_NAME>
stavudine

> <INCHI_IDENTIFIER>
InChI=1S/C10H12N2O4/c1-6-4-12(10(15)11-9(6)14)8-3-2-7(5-13)16-8/h2-4,7-8,13H,5H2,1H3,(H,11,14,15)/t7-,8+/m0/s1

> <INCHI_KEY>
InChIKey=XNKLLVCARDGLGL-JGVFFNPUSA-N

> <SMILES>
CC1=CN([C@@H]2O[C@H](CO)C=C2)C(=O)NC1=O

> <JCHEM_ACCEPTOR_COUNT>
4

> <JCHEM_DONOR_COUNT>
2

> <JCHEM_ACIDIC_PKA>
9.95

> <JCHEM_BASIC_PKA>
-3

> <JCHEM_PHYSIOLOGICAL_CHARGE>
0

> <ALOGPS_LOGP>
-0.73

> <JCHEM_LOGP>
-0.23

> <ALOGPS_LOGS>
-0.74

> <JCHEM_POLARIZABILITY>
21.33

> <JCHEM_POLAR_SURFACE_AREA>
78.87

> <JCHEM_REFRACTIVITY>
55.32

> <JCHEM_ROTATABLE_BOND_COUNT>
2

> <ALOGPS_SOLUBILITY>
4.05e+01 g/l __ 

$$$$
