737
  Mrv0541 02231214582D          

 28 31  0  0  1  0            999 V2000
    1.6500   -3.3001    0.0000 Cl   0  0  0  0  0  0  0  0  0  0  0  0
    4.5080   -0.8250    0.0000 N    0  0  0  0  0  0  0  0  0  0  0  0
    4.5080    0.8250    0.0000 N    0  0  0  0  0  0  0  0  0  0  0  0
    3.7935   -0.4125    0.0000 C    0  0  0  0  0  0  0  0  0  0  0  0
    5.2224   -0.4125    0.0000 C    0  0  0  0  0  0  0  0  0  0  0  0
    3.7935    0.4125    0.0000 C    0  0  0  0  0  0  0  0  0  0  0  0
    5.2224    0.4125    0.0000 C    0  0  0  0  0  0  0  0  0  0  0  0
    4.5080   -1.6500    0.0000 C    0  0  0  0  0  0  0  0  0  0  0  0
    4.5080    1.6500    0.0000 C    0  0  0  0  0  0  0  0  0  0  0  0
    3.7935   -2.0625    0.0000 C    0  0  0  0  0  0  0  0  0  0  0  0
    5.2224   -2.0625    0.0000 C    0  0  0  0  0  0  0  0  0  0  0  0
    5.2224    2.0625    0.0000 C    0  0  0  0  0  0  0  0  0  0  0  0
    3.7935   -2.8876    0.0000 C    0  0  0  0  0  0  0  0  0  0  0  0
    3.0791   -1.6500    0.0000 C    0  0  0  0  0  0  0  0  0  0  0  0
    5.9370   -1.6500    0.0000 C    0  0  0  0  0  0  0  0  0  0  0  0
    5.2224   -2.8876    0.0000 C    0  0  0  0  0  0  0  0  0  0  0  0
    5.9370    1.6500    0.0000 C    0  0  0  0  0  0  0  0  0  0  0  0
    5.2224    2.8876    0.0000 C    0  0  0  0  0  0  0  0  0  0  0  0
    3.0791   -3.3001    0.0000 C    0  0  0  0  0  0  0  0  0  0  0  0
    2.3645   -2.0625    0.0000 C    0  0  0  0  0  0  0  0  0  0  0  0
    6.6515   -2.0625    0.0000 C    0  0  0  0  0  0  0  0  0  0  0  0
    5.9370   -3.3001    0.0000 C    0  0  0  0  0  0  0  0  0  0  0  0
    6.6515    2.0625    0.0000 C    0  0  0  0  0  0  0  0  0  0  0  0
    2.3645   -2.8876    0.0000 C    0  0  0  0  0  0  0  0  0  0  0  0
    6.6515   -2.8876    0.0000 C    0  0  0  0  0  0  0  0  0  0  0  0
    5.9370    3.3001    0.0000 C    0  0  0  0  0  0  0  0  0  0  0  0
    6.6515    2.8876    0.0000 C    0  0  0  0  0  0  0  0  0  0  0  0
    7.3659    1.6500    0.0000 C    0  0  0  0  0  0  0  0  0  0  0  0
  1 24  1  0  0  0  0
  2  4  1  0  0  0  0
  2  5  1  0  0  0  0
  2  8  1  0  0  0  0
  3  6  1  0  0  0  0
  3  7  1  0  0  0  0
  3  9  1  0  0  0  0
  4  6  1  0  0  0  0
  5  7  1  0  0  0  0
  8 10  1  0  0  0  0
  8 11  1  0  0  0  0
  9 12  1  0  0  0  0
 10 13  2  0  0  0  0
 10 14  1  0  0  0  0
 11 15  2  0  0  0  0
 11 16  1  0  0  0  0
 12 17  1  0  0  0  0
 12 18  2  0  0  0  0
 13 19  1  0  0  0  0
 14 20  2  0  0  0  0
 15 21  1  0  0  0  0
 16 22  2  0  0  0  0
 17 23  2  0  0  0  0
 18 26  1  0  0  0  0
 19 24  2  0  0  0  0
 20 24  1  0  0  0  0
 21 25  2  0  0  0  0
 22 25  1  0  0  0  0
 23 27  1  0  0  0  0
 23 28  1  0  0  0  0
 26 27  2  0  0  0  0
M  END
> <DRUGBANK_ID>
DB00737

> <DRUG_GROUPS>
approved

> <GENERIC_NAME>
Meclizine

> <SYNONYMS>
Meclozine

> <SALTS>
Meclizine Hydrochloride

> <BRANDS>
Antivert; Bonamine; Bonine; Chiclida; Dramamine; Meclicot; Navicalm; Postafen; Sea-Legs

> <CHEMICAL_FORMULA>
C25H27ClN2

> <MOLECULAR_WEIGHT>
390.948

> <EXACT_MASS>
390.186276581

> <IUPAC_NAME>
1-[(4-chlorophenyl)(phenyl)methyl]-4-[(3-methylphenyl)methyl]piperazine

> <IUPAC_TRADITIONAL_NAME>
meclizine

> <INCHI_IDENTIFIER>
InChI=1S/C25H27ClN2/c1-20-6-5-7-21(18-20)19-27-14-16-28(17-15-27)25(22-8-3-2-4-9-22)23-10-12-24(26)13-11-23/h2-13,18,25H,14-17,19H2,1H3

> <INCHI_KEY>
InChIKey=OCJYIGYOJCODJL-UHFFFAOYSA-N

> <SMILES>
CC1=CC(CN2CCN(CC2)C(C2=CC=CC=C2)C2=CC=C(Cl)C=C2)=CC=C1

> <JCHEM_ACCEPTOR_COUNT>
2

> <JCHEM_DONOR_COUNT>
0

> <JCHEM_BASIC_PKA>
8.16

> <JCHEM_PHYSIOLOGICAL_CHARGE>
1

> <ALOGPS_LOGP>
5.59

> <JCHEM_LOGP>
6.39

> <ALOGPS_LOGS>
-5.6

> <JCHEM_POLARIZABILITY>
44.87

> <JCHEM_POLAR_SURFACE_AREA>
6.48

> <JCHEM_REFRACTIVITY>
119.39

> <JCHEM_ROTATABLE_BOND_COUNT>
5

> <ALOGPS_SOLUBILITY>
1.03e-03 g/l __ 

$$$$
