402
  Mrv0541 02231214392D          

 27 30  0  0  1  0            999 V2000
    7.6412   -1.8754    0.0000 Cl   0  0  0  0  0  0  0  0  0  0  0  0
    4.1159   -0.4273    0.0000 O    0  0  0  0  0  0  0  0  0  0  0  0
    2.7577    0.0166    0.0000 O    0  0  0  0  0  0  0  0  0  0  0  0
    4.1159   -3.3235    0.0000 O    0  0  0  0  0  0  0  0  0  0  0  0
    3.8213    0.9710    0.0000 N    0  0  0  0  0  0  0  0  0  0  0  0
    4.3339    2.5393    0.0000 N    0  0  0  0  0  0  0  0  0  0  0  0
    4.3412   -1.8754    0.0000 N    0  0  0  0  0  0  0  0  0  0  0  0
    2.3645   -1.0504    0.0000 N    0  0  0  0  0  0  0  0  0  0  0  0
    2.3645   -2.7004    0.0000 N    0  0  0  0  0  0  0  0  0  0  0  0
    5.5787   -2.5899    0.0000 N    0  0  0  0  0  0  0  0  0  0  0  0
    4.6286    1.1411    0.0000 C    0  0  0  0  0  0  0  0  0  0  0  0
    3.2703    1.5850    0.0000 C    0  0  0  0  0  0  0  0  0  0  0  0
    4.8848    1.9253    0.0000 C    0  0  0  0  0  0  0  0  0  0  0  0
    3.5266    2.3692    0.0000 C    0  0  0  0  0  0  0  0  0  0  0  0
    3.8597   -1.2115    0.0000 C    0  0  2  0  0  0  0  0  0  0  0  0
    3.5650    0.1868    0.0000 C    0  0  0  0  0  0  0  0  0  0  0  0
    4.5902    3.3235    0.0000 C    0  0  0  0  0  0  0  0  0  0  0  0
    3.0791   -1.4629    0.0000 C    0  0  0  0  0  0  0  0  0  0  0  0
    3.0791   -2.2879    0.0000 C    0  0  0  0  0  0  0  0  0  0  0  0
    3.8597   -2.5393    0.0000 C    0  0  0  0  0  0  0  0  0  0  0  0
    5.1662   -1.8754    0.0000 C    0  0  0  0  0  0  0  0  0  0  0  0
    5.5787   -1.1610    0.0000 C    0  0  0  0  0  0  0  0  0  0  0  0
    1.6500   -1.4629    0.0000 C    0  0  0  0  0  0  0  0  0  0  0  0
    1.6500   -2.2879    0.0000 C    0  0  0  0  0  0  0  0  0  0  0  0
    6.4037   -1.1610    0.0000 C    0  0  0  0  0  0  0  0  0  0  0  0
    6.4037   -2.5899    0.0000 C    0  0  0  0  0  0  0  0  0  0  0  0
    6.8162   -1.8754    0.0000 C    0  0  0  0  0  0  0  0  0  0  0  0
  1 27  1  0  0  0  0
 15  2  1  6  0  0  0
  2 16  1  0  0  0  0
  3 16  2  0  0  0  0
  4 20  2  0  0  0  0
  5 11  1  0  0  0  0
  5 12  1  0  0  0  0
  5 16  1  0  0  0  0
  6 13  1  0  0  0  0
  6 14  1  0  0  0  0
  6 17  1  0  0  0  0
  7 15  1  0  0  0  0
  7 20  1  0  0  0  0
  7 21  1  0  0  0  0
  8 18  2  0  0  0  0
  8 23  1  0  0  0  0
  9 19  2  0  0  0  0
  9 24  1  0  0  0  0
 10 21  2  0  0  0  0
 10 26  1  0  0  0  0
 11 13  1  0  0  0  0
 12 14  1  0  0  0  0
 15 18  1  0  0  0  0
 18 19  1  0  0  0  0
 19 20  1  0  0  0  0
 21 22  1  0  0  0  0
 22 25  2  0  0  0  0
 23 24  2  0  0  0  0
 25 27  1  0  0  0  0
 26 27  2  0  0  0  0
M  END
> <DRUGBANK_ID>
DB00402

> <DRUG_GROUPS>
approved

> <GENERIC_NAME>
Eszopiclone

> <SYNONYMS>
Esopiclone

> <BRANDS>


> <CHEMICAL_FORMULA>
C17H17ClN6O3

> <MOLECULAR_WEIGHT>
388.808

> <EXACT_MASS>
388.105066147

> <IUPAC_NAME>
(5S)-6-(5-chloropyridin-2-yl)-7-oxo-5H,6H,7H-pyrrolo[3,4-b]pyrazin-5-yl 4-methylpiperazine-1-carboxylate

> <IUPAC_TRADITIONAL_NAME>
eszopiclone

> <INCHI_IDENTIFIER>
InChI=1S/C17H17ClN6O3/c1-22-6-8-23(9-7-22)17(26)27-16-14-13(19-4-5-20-14)15(25)24(16)12-3-2-11(18)10-21-12/h2-5,10,16H,6-9H2,1H3/t16-/m0/s1

> <INCHI_KEY>
InChIKey=GBBSUAFBMRNDJC-INIZCTEOSA-N

> <SMILES>
CN1CCN(CC1)C(=O)O[C@@H]1N(C(=O)C2=NC=CN=C12)C1=NC=C(Cl)C=C1

> <JCHEM_ACCEPTOR_COUNT>
6

> <JCHEM_DONOR_COUNT>
0

> <JCHEM_ACIDIC_PKA>
13.04

> <JCHEM_BASIC_PKA>
6.89

> <JCHEM_PHYSIOLOGICAL_CHARGE>
0

> <ALOGPS_LOGP>
0.97

> <JCHEM_LOGP>
0.81

> <ALOGPS_LOGS>
-2.6

> <JCHEM_POLARIZABILITY>
37.67

> <JCHEM_POLAR_SURFACE_AREA>
91.76

> <JCHEM_REFRACTIVITY>
95.89

> <JCHEM_ROTATABLE_BOND_COUNT>
3

> <ALOGPS_SOLUBILITY>
8.85e-01 g/l __ 

$$$$
