167
  Mrv0541 02231214292D          

  9  8  0  0  1  0            999 V2000
    5.2224   -0.0784    0.0000 O   0  0  0  0  0  0  0  0  0  0  0  0
    4.5080    1.1592    0.0000 O   0  0  0  0  0  0  0  0  0  0  0  0
    3.7935   -0.9034    0.0000 N   0  0  0  0  0  0  0  0  0  0  0  0
    3.0791    0.3341    0.0000 C   0  0  2  0  0  0  0  0  0  0  0  0
    3.7935   -0.0784    0.0000 C   0  0  1  0  0  0  0  0  0  0  0  0
    2.3645   -0.0784    0.0000 C   0  0  0  0  0  0  0  0  0  0  0  0
    3.0791    1.1592    0.0000 C   0  0  0  0  0  0  0  0  0  0  0  0
    1.6500    0.3341    0.0000 C   0  0  0  0  0  0  0  0  0  0  0  0
    4.5080    0.3341    0.0000 C   0  0  0  0  0  0  0  0  0  0  0  0
  1  9  1  0  0  0  0
  2  9  2  0  0  0  0
  5  3  1  1  0  0  0
  4  5  1  0  0  0  0
  4  6  1  0  0  0  0
  4  7  1  6  0  0  0
  5  9  1  0  0  0  0
  6  8  1  0  0  0  0
M  END
> <DRUGBANK_ID>
DB00167

> <DRUG_GROUPS>
approved; nutraceutical

> <GENERIC_NAME>
L-Isoleucine

> <SYNONYMS>
(2S,3S)-2-Amino-3-methylpentanoic acid; 2-Amino-3-methylvaleric acid; alpha-amino-beta-methylvaleric acid; Ile; Isoleucine; α-amino-β-methylvaleric acid

> <CHEMICAL_FORMULA>
C6H13NO2

> <MOLECULAR_WEIGHT>
131.1729

> <EXACT_MASS>
131.094628665

> <IUPAC_NAME>
(2S,3S)-2-amino-3-methylpentanoic acid

> <IUPAC_TRADITIONAL_NAME>
L-isoleucine

> <INCHI_IDENTIFIER>
InChI=1S/C6H13NO2/c1-3-4(2)5(7)6(8)9/h4-5H,3,7H2,1-2H3,(H,8,9)/t4-,5-/m0/s1

> <INCHI_KEY>
InChIKey=AGPKZVBTJJNPAG-WHFBIAKZSA-N

> <SMILES>
CC[C@H](C)[C@H](N)C(O)=O

> <JCHEM_ACCEPTOR_COUNT>
3

> <JCHEM_DONOR_COUNT>
2

> <JCHEM_ACIDIC_PKA>
2.79

> <JCHEM_BASIC_PKA>
9.59

> <JCHEM_PHYSIOLOGICAL_CHARGE>
0

> <ALOGPS_LOGP>
-1.7

> <JCHEM_LOGP>
-1.5

> <ALOGPS_LOGS>
-0.06

> <JCHEM_POLARIZABILITY>
14.11

> <JCHEM_POLAR_SURFACE_AREA>
63.32

> <JCHEM_REFRACTIVITY>
34.09

> <JCHEM_ROTATABLE_BOND_COUNT>
3

> <ALOGPS_SOLUBILITY>
1.14e+02 g/l __ 

$$$$
