
  Mrv0541 09241313202D          

 31 33  0  0  0  0            999 V2000
    2.8984    5.6343    0.0000 N   0  0  0  0  0  0  0  0  0  0  0  0
    2.8984    4.8093    0.0000 C   0  0  0  0  0  0  0  0  0  0  0  0
    2.1839    4.3968    0.0000 N   0  0  0  0  0  0  0  0  0  0  0  0
    2.1838    3.5718    0.0000 C   0  0  0  0  0  0  0  0  0  0  0  0
    2.8983    3.1593    0.0000 N   0  0  0  0  0  0  0  0  0  0  0  0
    3.6128    3.5718    0.0000 C   0  0  0  0  0  0  0  0  0  0  0  0
    3.6128    4.3968    0.0000 C   0  0  0  0  0  0  0  0  0  0  0  0
    4.3974    4.6517    0.0000 N   0  0  0  0  0  0  0  0  0  0  0  0
    4.8824    3.9842    0.0000 C   0  0  0  0  0  0  0  0  0  0  0  0
    4.3974    3.3168    0.0000 N   0  0  0  0  0  0  0  0  0  0  0  0
    4.6524    2.5320    0.0000 C   0  0  2  0  0  0  0  0  0  0  0  0
    4.1674    1.8647    0.0000 O   0  0  0  0  0  0  0  0  0  0  0  0
    4.6523    1.1971    0.0000 C   0  0  1  0  0  0  0  0  0  0  0  0
    5.4368    1.4521    0.0000 C   0  0  1  0  0  0  0  0  0  0  0  0
    6.1044    0.9671    0.0000 O   0  0  0  0  0  0  0  0  0  0  0  0
    5.4370    2.2771    0.0000 C   0  0  1  0  0  0  0  0  0  0  0  0
    6.1044    2.7620    0.0000 O   0  0  0  0  0  0  0  0  0  0  0  0
    3.5722    0.4125    0.0000 O   0  0  0  0  0  0  0  0  0  0  0  0
    2.8578   -0.8250    0.0000 O   0  0  0  0  0  0  0  0  0  0  0  0
    2.8578    0.0000    0.0000 P   0  0  0  0  0  0  0  0  0  0  0  0
    2.8578    0.8250    0.0000 O   0  0  0  0  0  0  0  0  0  0  0  0
    2.1434    0.4125    0.0000 O   0  0  0  0  0  0  0  0  0  0  0  0
    1.4289   -0.8250    0.0000 O   0  0  0  0  0  0  0  0  0  0  0  0
    1.4289    0.0000    0.0000 P   0  0  0  0  0  0  0  0  0  0  0  0
    1.4289    0.8447    0.0000 O   0  0  0  0  0  0  0  0  0  0  0  0
    0.7144    0.4125    0.0000 O   0  0  0  0  0  0  0  0  0  0  0  0
    0.0000   -0.8250    0.0000 O   0  0  0  0  0  0  0  0  0  0  0  0
   -0.7145    0.4125    0.0000 O   0  0  0  0  0  0  0  0  0  0  0  0
    0.0000    0.0000    0.0000 P   0  0  0  0  0  0  0  0  0  0  0  0
    0.0000    0.8250    0.0000 O   0  0  0  0  0  0  0  0  0  0  0  0
    4.3973    0.4125    0.0000 C   0  0  0  0  0  0  0  0  0  0  0  0
  1  2  1  0  0  0  0
  2  3  2  0  0  0  0
  2  7  1  0  0  0  0
  3  4  1  0  0  0  0
  4  5  2  0  0  0  0
  5  6  1  0  0  0  0
  6  7  2  0  0  0  0
  6 10  1  0  0  0  0
  7  8  1  0  0  0  0
  8  9  2  0  0  0  0
  9 10  1  0  0  0  0
 11 10  1  1  0  0  0
 11 12  1  0  0  0  0
 11 16  1  0  0  0  0
 12 13  1  0  0  0  0
 13 31  1  1  0  0  0
 13 14  1  0  0  0  0
 14 15  1  6  0  0  0
 14 16  1  0  0  0  0
 16 17  1  6  0  0  0
 18 20  1  0  0  0  0
 20 19  2  0  0  0  0
 20 22  1  0  0  0  0
 20 21  1  0  0  0  0
 22 24  1  0  0  0  0
 24 23  2  0  0  0  0
 24 26  1  0  0  0  0
 24 25  1  0  0  0  0
 26 29  1  0  0  0  0
 29 27  2  0  0  0  0
 29 28  1  0  0  0  0
 29 30  1  0  0  0  0
 31 18  1  0  0  0  0
M  END
> <DRUGBANK_ID>
DB00171

> <DRUG_GROUPS>
approved; nutraceutical

> <GENERIC_NAME>
Adenosine triphosphate

> <SYNONYMS>
Adenosine 5'-triphosphate; Adenosine-5'-triphosphate; ATP

> <BRANDS>


> <CHEMICAL_FORMULA>
C10H16N5O13P3

> <MOLECULAR_WEIGHT>
507.181

> <EXACT_MASS>
506.995745159

> <IUPAC_NAME>
({[({[(2R,3S,4R,5R)-5-(6-amino-9H-purin-9-yl)-3,4-dihydroxyoxolan-2-yl]methoxy}(hydroxy)phosphoryl)oxy](hydroxy)phosphoryl}oxy)phosphonic acid

> <IUPAC_TRADITIONAL_NAME>
adenosine triphosphate

> <INCHI_IDENTIFIER>
InChI=1/C10H16N5O13P3/c11-8-5-9(13-2-12-8)15(3-14-5)10-7(17)6(16)4(26-10)1-25-30(21,22)28-31(23,24)27-29(18,19)20/h2-4,6-7,10,16-17H,1H2,(H,21,22)(H,23,24)(H2,11,12,13)(H2,18,19,20)/t4-,6-,7-,10-/s2

> <INCHI_KEY>
InChIKey=ZKHQWZAMYRWXGA-YPLCUDRINA-N

> <SMILES>
NC1=NC=NC2=C1N=CN2[C@@H]1O[C@H](COP(O)(=O)OP(O)(=O)OP(O)(O)=O)[C@@H](O)[C@H]1O

> <JCHEM_ACCEPTOR_COUNT>
14

> <JCHEM_DONOR_COUNT>
7

> <JCHEM_ACIDIC_PKA>
0.9

> <JCHEM_BASIC_PKA>
5

> <JCHEM_PHYSIOLOGICAL_CHARGE>
-3

> <ALOGPS_LOGP>
-0.84

> <JCHEM_LOGP>
-6

> <ALOGPS_LOGS>
-2

> <JCHEM_POLARIZABILITY>
38.92

> <JCHEM_POLAR_SURFACE_AREA>
279.13

> <JCHEM_REFRACTIVITY>
95.81

> <JCHEM_ROTATABLE_BOND_COUNT>
8

> <ALOGPS_SOLUBILITY>
4.49e+00 g/l __ 

$$$$
