648
  Mrv0541 02231214522D          

 18 19  0  0  1  0            999 V2000
    2.3645    1.6500    0.0000 Cl   0  0  0  0  0  0  0  0  0  0  0  0
    1.6500    0.4125    0.0000 Cl   0  0  0  0  0  0  0  0  0  0  0  0
    1.6500   -0.4125    0.0000 Cl   0  0  0  0  0  0  0  0  0  0  0  0
    5.9370    2.0625    0.0000 Cl   0  0  0  0  0  0  0  0  0  0  0  0
    3.0791    0.4125    0.0000 C    0  0  0  0  0  0  0  0  0  0  0  0
    3.7935    0.8250    0.0000 C    0  0  0  0  0  0  0  0  0  0  0  0
    3.0791   -0.4125    0.0000 C    0  0  0  0  0  0  0  0  0  0  0  0
    2.3645    0.8250    0.0000 C    0  0  0  0  0  0  0  0  0  0  0  0
    4.5080    0.4125    0.0000 C    0  0  0  0  0  0  0  0  0  0  0  0
    3.7935    1.6500    0.0000 C    0  0  0  0  0  0  0  0  0  0  0  0
    2.3645   -0.8250    0.0000 C    0  0  0  0  0  0  0  0  0  0  0  0
    3.7935   -0.8250    0.0000 C    0  0  0  0  0  0  0  0  0  0  0  0
    5.2224    0.8250    0.0000 C    0  0  0  0  0  0  0  0  0  0  0  0
    4.5080    2.0625    0.0000 C    0  0  0  0  0  0  0  0  0  0  0  0
    2.3645   -1.6500    0.0000 C    0  0  0  0  0  0  0  0  0  0  0  0
    3.7935   -1.6500    0.0000 C    0  0  0  0  0  0  0  0  0  0  0  0
    5.2224    1.6500    0.0000 C    0  0  0  0  0  0  0  0  0  0  0  0
    3.0791   -2.0625    0.0000 C    0  0  0  0  0  0  0  0  0  0  0  0
  1  8  1  0  0  0  0
  2  8  1  0  0  0  0
  3 11  1  0  0  0  0
  4 17  1  0  0  0  0
  5  6  1  0  0  0  0
  5  7  1  0  0  0  0
  5  8  1  0  0  0  0
  6  9  2  0  0  0  0
  6 10  1  0  0  0  0
  7 11  1  0  0  0  0
  7 12  2  0  0  0  0
  9 13  1  0  0  0  0
 10 14  2  0  0  0  0
 11 15  2  0  0  0  0
 12 16  1  0  0  0  0
 13 17  2  0  0  0  0
 14 17  1  0  0  0  0
 15 18  1  0  0  0  0
 16 18  2  0  0  0  0
M  END
> <DRUGBANK_ID>
DB00648

> <DRUG_GROUPS>
approved

> <GENERIC_NAME>
Mitotane

> <SYNONYMS>
Mitotan; Mitotane; Mitotano; Mitotanum; Piprine-DDD, O-

> <BRANDS>
Lisodren; Lysodren; Opeprim

> <CHEMICAL_FORMULA>
C14H10Cl4

> <MOLECULAR_WEIGHT>
320.041

> <EXACT_MASS>
317.953661148

> <IUPAC_NAME>
1-chloro-4-[2,2-dichloro-1-(2-chlorophenyl)ethyl]benzene

> <IUPAC_TRADITIONAL_NAME>
mitotane

> <INCHI_IDENTIFIER>
InChI=1S/C14H10Cl4/c15-10-7-5-9(6-8-10)13(14(17)18)11-3-1-2-4-12(11)16/h1-8,13-14H

> <INCHI_KEY>
InChIKey=JWBOIMRXGHLCPP-UHFFFAOYSA-N

> <SMILES>
ClC(Cl)C(C1=CC=C(Cl)C=C1)C1=CC=CC=C1Cl

> <JCHEM_ACCEPTOR_COUNT>
0

> <JCHEM_DONOR_COUNT>
0

> <JCHEM_PHYSIOLOGICAL_CHARGE>
0

> <ALOGPS_LOGP>
6.08

> <JCHEM_LOGP>
6.11

> <ALOGPS_LOGS>
-7.5

> <JCHEM_POLARIZABILITY>
29.93

> <JCHEM_POLAR_SURFACE_AREA>
0

> <JCHEM_REFRACTIVITY>
79.97

> <JCHEM_ROTATABLE_BOND_COUNT>
3

> <ALOGPS_SOLUBILITY>
9.42e-06 g/l __ 

$$$$
