532
  Mrv0541 02231214452D          

 16 17  0  0  1  0            999 V2000
    2.0082    1.2299    0.0000 O   0  0  0  0  0  0  0  0  0  0  0  0
    4.9124    1.2299    0.0000 O   0  0  0  0  0  0  0  0  0  0  0  0
    3.8728    0.1902    0.0000 N   0  0  0  0  0  0  0  0  0  0  0  0
    3.4603    1.4598    0.0000 N   0  0  0  0  0  0  0  0  0  0  0  0
    3.0478    0.1902    0.0000 C   0  0  0  0  0  0  0  0  0  0  0  0
    2.2631   -0.0647    0.0000 C   0  0  0  0  0  0  0  0  0  0  0  0
    2.7929    0.9748    0.0000 C   0  0  0  0  0  0  0  0  0  0  0  0
    3.0478   -0.6348    0.0000 C   0  0  0  0  0  0  0  0  0  0  0  0
    4.1277    0.9748    0.0000 C   0  0  0  0  0  0  0  0  0  0  0  0
    1.6500    0.4873    0.0000 C   0  0  0  0  0  0  0  0  0  0  0  0
    3.7622   -1.0473    0.0000 C   0  0  0  0  0  0  0  0  0  0  0  0
    2.3333   -1.0473    0.0000 C   0  0  0  0  0  0  0  0  0  0  0  0
    3.4603    2.2848    0.0000 C   0  0  0  0  0  0  0  0  0  0  0  0
    3.7622   -1.8723    0.0000 C   0  0  0  0  0  0  0  0  0  0  0  0
    2.3333   -1.8723    0.0000 C   0  0  0  0  0  0  0  0  0  0  0  0
    3.0478   -2.2848    0.0000 C   0  0  0  0  0  0  0  0  0  0  0  0
  1  7  2  0  0  0  0
  2  9  2  0  0  0  0
  3  5  1  0  0  0  0
  3  9  1  0  0  0  0
  4  7  1  0  0  0  0
  4  9  1  0  0  0  0
  4 13  1  0  0  0  0
  5  6  1  0  0  0  0
  5  7  1  0  0  0  0
  5  8  1  0  0  0  0
  6 10  1  0  0  0  0
  8 11  2  0  0  0  0
  8 12  1  0  0  0  0
 11 14  1  0  0  0  0
 12 15  2  0  0  0  0
 14 16  2  0  0  0  0
 15 16  1  0  0  0  0
M  END
> <DRUGBANK_ID>
DB00532

> <DRUG_GROUPS>
investigational; withdrawn

> <GENERIC_NAME>
Mephenytoin

> <BRANDS>
Mesantoin

> <CHEMICAL_FORMULA>
C12H14N2O2

> <MOLECULAR_WEIGHT>
218.2518

> <EXACT_MASS>
218.105527702

> <IUPAC_NAME>
5-ethyl-3-methyl-5-phenylimidazolidine-2,4-dione

> <IUPAC_TRADITIONAL_NAME>
mephenytoin

> <INCHI_IDENTIFIER>
InChI=1S/C12H14N2O2/c1-3-12(9-7-5-4-6-8-9)10(15)14(2)11(16)13-12/h4-8H,3H2,1-2H3,(H,13,16)

> <INCHI_KEY>
InChIKey=GMHKMTDVRCWUDX-UHFFFAOYSA-N

> <SMILES>
CCC1(NC(=O)N(C)C1=O)C1=CC=CC=C1

> <JCHEM_ACCEPTOR_COUNT>
2

> <JCHEM_DONOR_COUNT>
1

> <JCHEM_ACIDIC_PKA>
11.18

> <JCHEM_BASIC_PKA>
-8.1

> <JCHEM_PHYSIOLOGICAL_CHARGE>
0

> <ALOGPS_LOGP>
1.64

> <JCHEM_LOGP>
1.67

> <ALOGPS_LOGS>
-2.4

> <JCHEM_POLARIZABILITY>
22.67

> <JCHEM_POLAR_SURFACE_AREA>
49.41

> <JCHEM_REFRACTIVITY>
59.54

> <JCHEM_ROTATABLE_BOND_COUNT>
2

> <ALOGPS_SOLUBILITY>
9.70e-01 g/l __ 

$$$$
