852
  Mrv0541 02231215032D          

 12 12  0  0  1  0            999 V2000
    1.6500    0.8250    0.0000 O   0  0  0  0  0  0  0  0  0  0  0  0
    3.0791    1.6500    0.0000 N   0  0  0  0  0  0  0  0  0  0  0  0
    3.0791    0.8250    0.0000 C   0  0  2  0  0  0  0  0  0  0  0  0
    2.3645    0.4125    0.0000 C   0  0  2  0  0  0  0  0  0  0  0  0
    2.3645   -0.4125    0.0000 C   0  0  0  0  0  0  0  0  0  0  0  0
    3.7935    0.4125    0.0000 C   0  0  0  0  0  0  0  0  0  0  0  0
    3.0791   -0.8250    0.0000 C   0  0  0  0  0  0  0  0  0  0  0  0
    1.6500   -0.8250    0.0000 C   0  0  0  0  0  0  0  0  0  0  0  0
    3.7935    2.0625    0.0000 C   0  0  0  0  0  0  0  0  0  0  0  0
    3.0791   -1.6500    0.0000 C   0  0  0  0  0  0  0  0  0  0  0  0
    1.6500   -1.6500    0.0000 C   0  0  0  0  0  0  0  0  0  0  0  0
    2.3645   -2.0625    0.0000 C   0  0  0  0  0  0  0  0  0  0  0  0
  4  1  1  6  0  0  0
  3  2  1  1  0  0  0
  2  9  1  0  0  0  0
  3  4  1  0  0  0  0
  3  6  1  0  0  0  0
  4  5  1  0  0  0  0
  5  7  2  0  0  0  0
  5  8  1  0  0  0  0
  7 10  1  0  0  0  0
  8 11  2  0  0  0  0
 10 12  2  0  0  0  0
 11 12  1  0  0  0  0
M  END
> <DRUGBANK_ID>
DB00852

> <DRUG_GROUPS>
approved

> <GENERIC_NAME>
Pseudoephedrine

> <SALTS>
Pseudoephedrine hydrochloride; Pseudoephedrine sulfate

> <BRANDS>
Afrinol; Benylin Decongestant; Cenafed; Decofed; Dimetapp Decongestant; Eltor 120; Genaphed; Maxenal; Myfedrine; Robidrine; Sudafed Decongestant

> <CHEMICAL_FORMULA>
C10H15NO

> <MOLECULAR_WEIGHT>
165.2322

> <EXACT_MASS>
165.115364107

> <IUPAC_NAME>
(1S,2S)-2-(methylamino)-1-phenylpropan-1-ol

> <IUPAC_TRADITIONAL_NAME>
pseudoephedrine

> <INCHI_IDENTIFIER>
InChI=1S/C10H15NO/c1-8(11-2)10(12)9-6-4-3-5-7-9/h3-8,10-12H,1-2H3/t8-,10+/m0/s1

> <INCHI_KEY>
InChIKey=KWGRBVOPPLSCSI-WCBMZHEXSA-N

> <SMILES>
CN[C@@H](C)[C@@H](O)C1=CC=CC=C1

> <JCHEM_ACCEPTOR_COUNT>
2

> <JCHEM_DONOR_COUNT>
2

> <JCHEM_ACIDIC_PKA>
13.89

> <JCHEM_BASIC_PKA>
9.52

> <JCHEM_PHYSIOLOGICAL_CHARGE>
1

> <ALOGPS_LOGP>
1

> <JCHEM_LOGP>
1.32

> <ALOGPS_LOGS>
-1.3

> <JCHEM_POLARIZABILITY>
18.83

> <JCHEM_POLAR_SURFACE_AREA>
32.26

> <JCHEM_REFRACTIVITY>
49.69

> <JCHEM_ROTATABLE_BOND_COUNT>
3

> <ALOGPS_SOLUBILITY>
8.26e+00 g/l __ 

$$$$
