65028
  Mrv0541 02231214302D          

 22 22  0  0  1  0            999 V2000
    3.7935    1.0313    0.0000 O   0  0  0  0  0  0  0  0  0  0  0  0
    4.5080   -1.8563    0.0000 O   0  0  0  0  0  0  0  0  0  0  0  0
    5.9370   -1.8563    0.0000 O   0  0  0  0  0  0  0  0  0  0  0  0
    3.7935    1.8563    0.0000 O   0  0  0  0  0  0  0  0  0  0  0  0
    5.2224    1.8563    0.0000 N   0  0  0  0  0  0  0  0  0  0  0  0
    6.6515    1.0313    0.0000 N   0  0  0  0  0  0  0  0  0  0  0  0
    5.2224    1.0313    0.0000 C   0  0  2  0  0  0  0  0  0  0  0  0
    5.9370    0.6188    0.0000 C   0  0  2  0  0  0  0  0  0  0  0  0
    4.5080    0.6188    0.0000 C   0  0  1  0  0  0  0  0  0  0  0  0
    5.9370   -0.2063    0.0000 C   0  0  0  0  0  0  0  0  0  0  0  0
    4.5080   -0.2063    0.0000 C   0  0  0  0  0  0  0  0  0  0  0  0
    5.2224   -0.6188    0.0000 C   0  0  0  0  0  0  0  0  0  0  0  0
    3.0790    0.6188    0.0000 C   0  0  0  0  0  0  0  0  0  0  0  0
    2.3645    1.0313    0.0000 C   0  0  0  0  0  0  0  0  0  0  0  0
    3.0790   -0.2063    0.0000 C   0  0  0  0  0  0  0  0  0  0  0  0
    5.2224   -1.4438    0.0000 C   0  0  0  0  0  0  0  0  0  0  0  0
    4.5080    2.2688    0.0000 C   0  0  0  0  0  0  0  0  0  0  0  0
    1.6500    0.6188    0.0000 C   0  0  0  0  0  0  0  0  0  0  0  0
    2.3645   -0.6188    0.0000 C   0  0  0  0  0  0  0  0  0  0  0  0
    4.5080    3.0938    0.0000 C   0  0  0  0  0  0  0  0  0  0  0  0
    4.5080   -2.6813    0.0000 C   0  0  0  0  0  0  0  0  0  0  0  0
    3.7935   -3.0938    0.0000 C   0  0  0  0  0  0  0  0  0  0  0  0
  9  1  1  1  0  0  0
  1 13  1  0  0  0  0
  2 16  1  0  0  0  0
  2 21  1  0  0  0  0
  3 16  2  0  0  0  0
  4 17  2  0  0  0  0
  7  5  1  6  0  0  0
  5 17  1  0  0  0  0
  8  6  1  1  0  0  0
  7  8  1  0  0  0  0
  7  9  1  0  0  0  0
  8 10  1  0  0  0  0
  9 11  1  0  0  0  0
 10 12  1  0  0  0  0
 11 12  2  0  0  0  0
 12 16  1  0  0  0  0
 13 14  1  0  0  0  0
 13 15  1  0  0  0  0
 14 18  1  0  0  0  0
 15 19  1  0  0  0  0
 17 20  1  0  0  0  0
 21 22  1  0  0  0  0
M  END
> <DRUGBANK_ID>
DB00198

> <DRUG_GROUPS>
approved

> <GENERIC_NAME>
Oseltamivir

> <SYNONYMS>
(âˆ’)-oseltamivir

> <SALTS>
Oseltamivir phosphate

> <BRANDS>


> <CHEMICAL_FORMULA>
C16H28N2O4

> <MOLECULAR_WEIGHT>
312.4045

> <EXACT_MASS>
312.204907394

> <IUPAC_NAME>
ethyl (3R,4R,5S)-5-amino-4-acetamido-3-(pentan-3-yloxy)cyclohex-1-ene-1-carboxylate

> <IUPAC_TRADITIONAL_NAME>
oseltamivir

> <INCHI_IDENTIFIER>
InChI=1S/C16H28N2O4/c1-5-12(6-2)22-14-9-11(16(20)21-7-3)8-13(17)15(14)18-10(4)19/h9,12-15H,5-8,17H2,1-4H3,(H,18,19)/t13-,14+,15+/m0/s1

> <INCHI_KEY>
InChIKey=VSZGPKBBMSAYNT-RRFJBIMHSA-N

> <SMILES>
CCOC(=O)C1=C[C@@H](OC(CC)CC)[C@H](NC(C)=O)[C@@H](N)C1

> <JCHEM_ACCEPTOR_COUNT>
4

> <JCHEM_DONOR_COUNT>
2

> <JCHEM_ACIDIC_PKA>
14.03

> <JCHEM_BASIC_PKA>
9.31

> <JCHEM_PHYSIOLOGICAL_CHARGE>
1

> <ALOGPS_LOGP>
1.3

> <JCHEM_LOGP>
1.16

> <ALOGPS_LOGS>
-2.7

> <JCHEM_POLARIZABILITY>
34.65

> <JCHEM_POLAR_SURFACE_AREA>
90.65

> <JCHEM_REFRACTIVITY>
84.2

> <JCHEM_ROTATABLE_BOND_COUNT>
8

> <ALOGPS_SOLUBILITY>
6.86e-01 g/l __ 

$$$$
