952
  Mrv0541 02231215072D          

 23 25  0  0  0  0            999 V2000
    3.0791   -0.5003    0.0000 S   0  0  0  0  0  0  0  0  0  0  0  0
    3.4916    0.2142    0.0000 O   0  0  0  0  0  0  0  0  0  0  0  0
    2.6665   -1.2148    0.0000 O   0  0  0  0  0  0  0  0  0  0  0  0
    8.2010    1.6912    0.0000 N   0  0  0  0  0  0  0  0  0  0  0  0
    7.4321   -1.9892    0.0000 N   0  0  0  0  0  0  0  0  0  0  0  0
    2.3645   -0.0878    0.0000 N   0  0  0  0  0  0  0  0  0  0  0  0
    7.6884    0.1228    0.0000 C   0  0  0  0  0  0  0  0  0  0  0  0
    8.4957    0.2930    0.0000 C   0  0  0  0  0  0  0  0  0  0  0  0
    7.1374    0.7369    0.0000 C   0  0  0  0  0  0  0  0  0  0  0  0
    8.7520    1.0771    0.0000 C   0  0  0  0  0  0  0  0  0  0  0  0
    7.3937    1.5211    0.0000 C   0  0  0  0  0  0  0  0  0  0  0  0
    7.4321   -0.6613    0.0000 C   0  0  0  0  0  0  0  0  0  0  0  0
    6.6515   -0.9128    0.0000 C   0  0  0  0  0  0  0  0  0  0  0  0
    7.9136   -1.3253    0.0000 C   0  0  0  0  0  0  0  0  0  0  0  0
    6.6515   -1.7378    0.0000 C   0  0  0  0  0  0  0  0  0  0  0  0
    8.4573    2.4754    0.0000 C   0  0  0  0  0  0  0  0  0  0  0  0
    5.9370   -0.5003    0.0000 C   0  0  0  0  0  0  0  0  0  0  0  0
    5.2224   -0.9128    0.0000 C   0  0  0  0  0  0  0  0  0  0  0  0
    5.9370   -2.1503    0.0000 C   0  0  0  0  0  0  0  0  0  0  0  0
    4.5080   -0.5003    0.0000 C   0  0  0  0  0  0  0  0  0  0  0  0
    5.2224   -1.7378    0.0000 C   0  0  0  0  0  0  0  0  0  0  0  0
    3.7935   -0.9128    0.0000 C   0  0  0  0  0  0  0  0  0  0  0  0
    1.6500   -0.5003    0.0000 C   0  0  0  0  0  0  0  0  0  0  0  0
  1  2  2  0  0  0  0
  1  3  2  0  0  0  0
  1  6  1  0  0  0  0
  1 22  1  0  0  0  0
  4 10  1  0  0  0  0
  4 11  1  0  0  0  0
  4 16  1  0  0  0  0
  5 14  1  0  0  0  0
  5 15  1  0  0  0  0
  6 23  1  0  0  0  0
  7  8  1  0  0  0  0
  7  9  1  0  0  0  0
  7 12  1  0  0  0  0
  8 10  1  0  0  0  0
  9 11  1  0  0  0  0
 12 13  1  0  0  0  0
 12 14  2  0  0  0  0
 13 15  2  0  0  0  0
 13 17  1  0  0  0  0
 15 19  1  0  0  0  0
 17 18  2  0  0  0  0
 18 20  1  0  0  0  0
 18 21  1  0  0  0  0
 19 21  2  0  0  0  0
 20 22  1  0  0  0  0
M  END
> <DRUGBANK_ID>
DB00952

> <DRUG_GROUPS>
approved; investigational

> <GENERIC_NAME>
Naratriptan

> <BRANDS>


> <CHEMICAL_FORMULA>
C17H25N3O2S

> <MOLECULAR_WEIGHT>
335.464

> <EXACT_MASS>
335.166747749

> <IUPAC_NAME>
N-methyl-2-[3-(1-methylpiperidin-4-yl)-1H-indol-5-yl]ethane-1-sulfonamide

> <IUPAC_TRADITIONAL_NAME>
naratriptan

> <INCHI_IDENTIFIER>
InChI=1S/C17H25N3O2S/c1-18-23(21,22)10-7-13-3-4-17-15(11-13)16(12-19-17)14-5-8-20(2)9-6-14/h3-4,11-12,14,18-19H,5-10H2,1-2H3

> <INCHI_KEY>
InChIKey=AMKVXSZCKVJAGH-UHFFFAOYSA-N

> <SMILES>
CNS(=O)(=O)CCC1=CC2=C(NC=C2C2CCN(C)CC2)C=C1

> <JCHEM_ACCEPTOR_COUNT>
3

> <JCHEM_DONOR_COUNT>
2

> <JCHEM_ACIDIC_PKA>
11.55

> <JCHEM_BASIC_PKA>
9.18

> <JCHEM_PHYSIOLOGICAL_CHARGE>
1

> <ALOGPS_LOGP>
2.16

> <JCHEM_LOGP>
1.44

> <ALOGPS_LOGS>
-3.5

> <JCHEM_POLARIZABILITY>
38

> <JCHEM_POLAR_SURFACE_AREA>
65.2

> <JCHEM_REFRACTIVITY>
94.26

> <JCHEM_ROTATABLE_BOND_COUNT>
4

> <ALOGPS_SOLUBILITY>
1.14e-01 g/l __ 

$$$$
