422
  Mrv0541 02231214402D          

 17 18  0  0  1  0            999 V2000
    3.0791   -1.0313    0.0000 O   0  0  0  0  0  0  0  0  0  0  0  0
    4.5080   -1.0313    0.0000 O   0  0  0  0  0  0  0  0  0  0  0  0
    5.2224    0.2063    0.0000 N   0  0  0  0  0  0  0  0  0  0  0  0
    4.5080    0.6188    0.0000 C   0  0  0  0  0  0  0  0  0  0  0  0
    4.5080    1.4438    0.0000 C   0  0  0  0  0  0  0  0  0  0  0  0
    3.7935    0.2063    0.0000 C   0  0  0  0  0  0  0  0  0  0  0  0
    5.2224    1.8563    0.0000 C   0  0  0  0  0  0  0  0  0  0  0  0
    5.9370    1.4438    0.0000 C   0  0  0  0  0  0  0  0  0  0  0  0
    5.9370    0.6188    0.0000 C   0  0  0  0  0  0  0  0  0  0  0  0
    3.0791    0.6188    0.0000 C   0  0  0  0  0  0  0  0  0  0  0  0
    3.7935   -0.6188    0.0000 C   0  0  0  0  0  0  0  0  0  0  0  0
    2.3645    0.2063    0.0000 C   0  0  0  0  0  0  0  0  0  0  0  0
    3.0791    1.4438    0.0000 C   0  0  0  0  0  0  0  0  0  0  0  0
    1.6500    0.6188    0.0000 C   0  0  0  0  0  0  0  0  0  0  0  0
    2.3645    1.8563    0.0000 C   0  0  0  0  0  0  0  0  0  0  0  0
    1.6500    1.4438    0.0000 C   0  0  0  0  0  0  0  0  0  0  0  0
    3.0791   -1.8563    0.0000 C   0  0  0  0  0  0  0  0  0  0  0  0
  1 11  1  0  0  0  0
  1 17  1  0  0  0  0
  2 11  2  0  0  0  0
  3  4  1  0  0  0  0
  3  9  1  0  0  0  0
  4  5  1  0  0  0  0
  4  6  1  0  0  0  0
  5  7  1  0  0  0  0
  6 10  1  0  0  0  0
  6 11  1  0  0  0  0
  7  8  1  0  0  0  0
  8  9  1  0  0  0  0
 10 12  2  0  0  0  0
 10 13  1  0  0  0  0
 12 14  1  0  0  0  0
 13 15  2  0  0  0  0
 14 16  2  0  0  0  0
 15 16  1  0  0  0  0
M  END
> <DRUGBANK_ID>
DB00422

> <DRUG_GROUPS>
approved; investigational

> <GENERIC_NAME>
Methylphenidate

> <SYNONYMS>
Methylphenidatum; Metilfenidato; MPH

> <SALTS>
Methylphenidate Hydrochloride 

> <BRANDS>
Concerta; Daytrana; Equasym XL; Metadate; Methylin; Quillivant XR; Ritalin

> <CHEMICAL_FORMULA>
C14H19NO2

> <MOLECULAR_WEIGHT>
233.3062

> <EXACT_MASS>
233.141578857

> <IUPAC_NAME>
methyl 2-phenyl-2-(piperidin-2-yl)acetate

> <IUPAC_TRADITIONAL_NAME>
methylphenidate

> <INCHI_IDENTIFIER>
InChI=1S/C14H19NO2/c1-17-14(16)13(11-7-3-2-4-8-11)12-9-5-6-10-15-12/h2-4,7-8,12-13,15H,5-6,9-10H2,1H3

> <INCHI_KEY>
InChIKey=DUGOZIWVEXMGBE-UHFFFAOYSA-N

> <SMILES>
COC(=O)C(C1CCCCN1)C1=CC=CC=C1

> <JCHEM_ACCEPTOR_COUNT>
2

> <JCHEM_DONOR_COUNT>
1

> <JCHEM_BASIC_PKA>
9.09

> <JCHEM_PHYSIOLOGICAL_CHARGE>
1

> <ALOGPS_LOGP>
1.47

> <JCHEM_LOGP>
2.25

> <ALOGPS_LOGS>
-3.1

> <JCHEM_POLARIZABILITY>
26.21

> <JCHEM_POLAR_SURFACE_AREA>
38.33

> <JCHEM_REFRACTIVITY>
66.73

> <JCHEM_ROTATABLE_BOND_COUNT>
4

> <ALOGPS_SOLUBILITY>
1.82e-01 g/l __ 

$$$$
