632
  Mrv0541 02231214502D          

 23 22  0  0  0  0            999 V2000
    2.0928   -0.2063    0.0000 O   0  0  0  0  0  0  0  0  0  0  0  0
    9.9515    0.2063    0.0000 C   0  0  0  0  0  0  0  0  0  0  0  0
   10.6658   -0.2063    0.0000 C   0  0  0  0  0  0  0  0  0  0  0  0
    9.2371   -0.2063    0.0000 C   0  0  0  0  0  0  0  0  0  0  0  0
   11.3804    0.2063    0.0000 C   0  0  0  0  0  0  0  0  0  0  0  0
    8.5226    0.2063    0.0000 C   0  0  0  0  0  0  0  0  0  0  0  0
   12.0947   -0.2063    0.0000 C   0  0  0  0  0  0  0  0  0  0  0  0
    7.8082   -0.2063    0.0000 C   0  0  0  0  0  0  0  0  0  0  0  0
   12.8091    0.2063    0.0000 C   0  0  0  0  0  0  0  0  0  0  0  0
    7.0938    0.2063    0.0000 C   0  0  0  0  0  0  0  0  0  0  0  0
   13.5236   -0.2063    0.0000 C   0  0  0  0  0  0  0  0  0  0  0  0
    6.3793   -0.2063    0.0000 C   0  0  0  0  0  0  0  0  0  0  0  0
   14.2380    0.2063    0.0000 C   0  0  0  0  0  0  0  0  0  0  0  0
    5.6650    0.2063    0.0000 C   0  0  0  0  0  0  0  0  0  0  0  0
   14.9524   -0.2063    0.0000 C   0  0  0  0  0  0  0  0  0  0  0  0
    4.9504   -0.2063    0.0000 C   0  0  0  0  0  0  0  0  0  0  0  0
   15.6668    0.2063    0.0000 C   0  0  0  0  0  0  0  0  0  0  0  0
    4.2361    0.2063    0.0000 C   0  0  0  0  0  0  0  0  0  0  0  0
   16.3812   -0.2063    0.0000 C   0  0  0  0  0  0  0  0  0  0  0  0
    3.5217   -0.2063    0.0000 C   0  0  0  0  0  0  0  0  0  0  0  0
   17.0957    0.2063    0.0000 C   0  0  0  0  0  0  0  0  0  0  0  0
    2.8072    0.2063    0.0000 C   0  0  0  0  0  0  0  0  0  0  0  0
   17.8101   -0.2063    0.0000 C   0  0  0  0  0  0  0  0  0  0  0  0
  1 22  1  0  0  0  0
  2  3  1  0  0  0  0
  2  4  1  0  0  0  0
  3  5  1  0  0  0  0
  4  6  1  0  0  0  0
  5  7  1  0  0  0  0
  6  8  1  0  0  0  0
  7  9  1  0  0  0  0
  8 10  1  0  0  0  0
  9 11  1  0  0  0  0
 10 12  1  0  0  0  0
 11 13  1  0  0  0  0
 12 14  1  0  0  0  0
 13 15  1  0  0  0  0
 14 16  1  0  0  0  0
 15 17  1  0  0  0  0
 16 18  1  0  0  0  0
 17 19  1  0  0  0  0
 18 20  1  0  0  0  0
 19 21  1  0  0  0  0
 20 22  1  0  0  0  0
 21 23  1  0  0  0  0
M  END
> <DRUGBANK_ID>
DB00632

> <DRUG_GROUPS>
approved; investigational

> <GENERIC_NAME>
Docosanol

> <SYNONYMS>
Behenic alcohol; Behenyl alcohol; Docosan-1-ol; Docosanol; Docosyl alcohol

> <BRANDS>
Abreva; Blistex; Erazaban; Healip; Lafrost

> <CHEMICAL_FORMULA>
C22H46O

> <MOLECULAR_WEIGHT>
326.6

> <EXACT_MASS>
326.354866094

> <IUPAC_NAME>
docosan-1-ol

> <IUPAC_TRADITIONAL_NAME>
docosanol

> <INCHI_IDENTIFIER>
InChI=1S/C22H46O/c1-2-3-4-5-6-7-8-9-10-11-12-13-14-15-16-17-18-19-20-21-22-23/h23H,2-22H2,1H3

> <INCHI_KEY>
InChIKey=NOPFSRXAKWQILS-UHFFFAOYSA-N

> <SMILES>
CCCCCCCCCCCCCCCCCCCCCCO

> <JCHEM_ACCEPTOR_COUNT>
1

> <JCHEM_DONOR_COUNT>
1

> <JCHEM_ACIDIC_PKA>
16.84

> <JCHEM_BASIC_PKA>
-2

> <JCHEM_PHYSIOLOGICAL_CHARGE>
0

> <ALOGPS_LOGP>
9.31

> <JCHEM_LOGP>
8.81

> <ALOGPS_LOGS>
-7.2

> <JCHEM_POLARIZABILITY>
47.27

> <JCHEM_POLAR_SURFACE_AREA>
20.23

> <JCHEM_REFRACTIVITY>
104.95

> <JCHEM_ROTATABLE_BOND_COUNT>
20

> <ALOGPS_SOLUBILITY>
1.96e-05 g/l __ 

$$$$
