
  Mrv0541 04191212122D          

 14 15  0  0  0  0            999 V2000
   -0.5893    0.9429    0.0000 C   0  0  0  0  0  0  0  0  0  0  0  0
   -1.3038    0.5304    0.0000 C   0  0  2  0  0  0  0  0  0  0  0  0
   -1.3038   -0.2947    0.0000 C   0  0  0  0  0  0  0  0  0  0  0  0
   -0.5893   -0.7072    0.0000 C   0  0  0  0  0  0  0  0  0  0  0  0
    0.1252   -0.2947    0.0000 C   0  0  0  0  0  0  0  0  0  0  0  0
    0.1252    0.5304    0.0000 C   0  0  0  0  0  0  0  0  0  0  0  0
    0.9098    0.7853    0.0000 S   0  0  0  0  0  0  0  0  0  0  0  0
    0.9098   -0.5496    0.0000 N   0  0  0  0  0  0  0  0  0  0  0  0
    1.3947    0.1178    0.0000 C   0  0  0  0  0  0  0  0  0  0  0  0
   -2.0182    0.9429    0.0000 N   0  0  0  0  0  0  0  0  0  0  0  0
    2.2197    0.1178    0.0000 N   0  0  0  0  0  0  0  0  0  0  0  0
   -2.7327    0.5304    0.0000 C   0  0  0  0  0  0  0  0  0  0  0  0
   -3.4472    0.9429    0.0000 C   0  0  0  0  0  0  0  0  0  0  0  0
   -4.1616    0.5304    0.0000 C   0  0  0  0  0  0  0  0  0  0  0  0
  1  2  1  0  0  0  0
  1  6  1  0  0  0  0
  2  3  1  0  0  0  0
  3  4  1  0  0  0  0
  4  5  1  0  0  0  0
  5  8  1  0  0  0  0
  6  5  2  0  0  0  0
  7  6  1  0  0  0  0
  7  9  1  0  0  0  0
  8  9  2  0  0  0  0
  2 10  1  6  0  0  0
  9 11  1  0  0  0  0
 10 12  1  0  0  0  0
 12 13  1  0  0  0  0
 13 14  1  0  0  0  0
M  END
> <DRUGBANK_ID>
DB00413

> <DRUG_GROUPS>
approved; investigational

> <GENERIC_NAME>
Pramipexole

> <SYNONYMS>
(-)-Pramipexole

> <SALTS>
Pramipexole hydrochloride

> <BRANDS>
Mirapex

> <CHEMICAL_FORMULA>
C10H17N3S

> <MOLECULAR_WEIGHT>
211.327

> <EXACT_MASS>
211.114318249

> <IUPAC_NAME>
(6S)-6-N-propyl-4,5,6,7-tetrahydro-1,3-benzothiazole-2,6-diamine

> <IUPAC_TRADITIONAL_NAME>
(-)-pramipexole

> <INCHI_IDENTIFIER>
InChI=1S/C10H17N3S/c1-2-5-12-7-3-4-8-9(6-7)14-10(11)13-8/h7,12H,2-6H2,1H3,(H2,11,13)/t7-/m0/s1

> <INCHI_KEY>
InChIKey=FASDKYOPVNHBLU-ZETCQYMHSA-N

> <SMILES>
CCCN[C@H]1CCC2=C(C1)SC(N)=N2

> <JCHEM_ACCEPTOR_COUNT>
3

> <JCHEM_DONOR_COUNT>
2

> <JCHEM_ACIDIC_PKA>
17.66

> <JCHEM_BASIC_PKA>
10.31

> <JCHEM_PHYSIOLOGICAL_CHARGE>
1

> <ALOGPS_LOGP>
2.18

> <JCHEM_LOGP>
1.76

> <ALOGPS_LOGS>
-3.2

> <JCHEM_POLARIZABILITY>
24.47

> <JCHEM_POLAR_SURFACE_AREA>
50.94

> <JCHEM_REFRACTIVITY>
59.77

> <JCHEM_ROTATABLE_BOND_COUNT>
3

> <ALOGPS_SOLUBILITY>
1.40e-01 g/l __ 

$$$$
