428
  Mrv0541 02231214402D          

 18 18  0  0  1  0            999 V2000
    4.2365   -1.1880    0.0000 O   0  0  0  0  0  0  0  0  0  0  0  0
    2.0930    0.0495    0.0000 O   0  0  0  0  0  0  0  0  0  0  0  0
    2.0930   -1.6005    0.0000 O   0  0  0  0  0  0  0  0  0  0  0  0
    4.9509    0.0495    0.0000 O   0  0  0  0  0  0  0  0  0  0  0  0
    4.2365   -2.8381    0.0000 O   0  0  0  0  0  0  0  0  0  0  0  0
    4.9509    0.8745    0.0000 O   0  0  0  0  0  0  0  0  0  0  0  0
    4.9509    3.3496    0.0000 O   0  0  0  0  0  0  0  0  0  0  0  0
    3.5220    0.8745    0.0000 N   0  0  0  0  0  0  0  0  0  0  0  0
    4.2365    2.1120    0.0000 N   0  0  0  0  0  0  0  0  0  0  0  0
    4.9509    2.5246    0.0000 N   0  0  0  0  0  0  0  0  0  0  0  0
    2.8075   -0.3630    0.0000 C   0  0  2  0  0  0  0  0  0  0  0  0
    3.5220    0.0495    0.0000 C   0  0  2  0  0  0  0  0  0  0  0  0
    2.8075   -1.1880    0.0000 C   0  0  1  0  0  0  0  0  0  0  0  0
    3.5220   -1.6005    0.0000 C   0  0  1  0  0  0  0  0  0  0  0  0
    4.2365   -0.3630    0.0000 C   0  0  2  0  0  0  0  0  0  0  0  0
    3.5220   -2.4256    0.0000 C   0  0  0  0  0  0  0  0  0  0  0  0
    4.2365    1.2870    0.0000 C   0  0  0  0  0  0  0  0  0  0  0  0
    3.5220    2.5246    0.0000 C   0  0  0  0  0  0  0  0  0  0  0  0
  1 14  1  0  0  0  0
  1 15  1  0  0  0  0
 11  2  1  6  0  0  0
 13  3  1  1  0  0  0
 15  4  1  1  0  0  0
  5 16  1  0  0  0  0
  6 17  2  0  0  0  0
  7 10  2  0  0  0  0
 12  8  1  1  0  0  0
  8 17  1  0  0  0  0
  9 10  1  0  0  0  0
  9 17  1  0  0  0  0
  9 18  1  0  0  0  0
 11 12  1  0  0  0  0
 11 13  1  0  0  0  0
 12 15  1  0  0  0  0
 13 14  1  0  0  0  0
 14 16  1  6  0  0  0
M  END
> <DRUGBANK_ID>
DB00428

> <DRUG_GROUPS>
approved

> <GENERIC_NAME>
Streptozocin

> <SYNONYMS>
Streptozocin; Streptozocine; Streptozocinum; Streptozotocin

> <BRANDS>
Zanosar

> <CHEMICAL_FORMULA>
C8H15N3O7

> <MOLECULAR_WEIGHT>
265.2206

> <EXACT_MASS>
265.090999849

> <IUPAC_NAME>
3-methyl-3-nitroso-1-[(2S,3R,4R,5S,6R)-2,4,5-trihydroxy-6-(hydroxymethyl)oxan-3-yl]urea

> <IUPAC_TRADITIONAL_NAME>
streptozocin

> <INCHI_IDENTIFIER>
InChI=1S/C8H15N3O7/c1-11(10-17)8(16)9-4-6(14)5(13)3(2-12)18-7(4)15/h3-7,12-15H,2H2,1H3,(H,9,16)/t3-,4-,5-,6-,7+/m1/s1

> <INCHI_KEY>
InChIKey=ZSJLQEPLLKMAKR-GKHCUFPYSA-N

> <SMILES>
CN(N=O)C(=O)N[C@H]1[C@@H](O)O[C@H](CO)[C@@H](O)[C@@H]1O

> <JCHEM_ACCEPTOR_COUNT>
7

> <JCHEM_DONOR_COUNT>
5

> <JCHEM_ACIDIC_PKA>
11.43

> <JCHEM_BASIC_PKA>
-3

> <JCHEM_PHYSIOLOGICAL_CHARGE>
0

> <ALOGPS_LOGP>
-1.7

> <JCHEM_LOGP>
-2.7

> <ALOGPS_LOGS>
-0.9

> <JCHEM_POLARIZABILITY>
23.74

> <JCHEM_POLAR_SURFACE_AREA>
151.92

> <JCHEM_REFRACTIVITY>
55.96

> <JCHEM_ROTATABLE_BOND_COUNT>
3

> <ALOGPS_SOLUBILITY>
3.35e+01 g/l __ 

$$$$
