234
  Mrv0541 02231214322D          

 24 26  0  0  1  0            999 V2000
    5.2224   -1.4438    0.0000 O   0  0  0  0  0  0  0  0  0  0  0  0
    3.7935    0.2063    0.0000 O   0  0  0  0  0  0  0  0  0  0  0  0
    2.3645    1.0313    0.0000 O   0  0  0  0  0  0  0  0  0  0  0  0
    3.7935   -2.2688    0.0000 N   0  0  0  0  0  0  0  0  0  0  0  0
    4.5080   -1.0313    0.0000 C   0  0  2  0  0  0  0  0  0  0  0  0
    4.5080   -0.2063    0.0000 C   0  0  2  0  0  0  0  0  0  0  0  0
    3.7935   -1.4438    0.0000 C   0  0  0  0  0  0  0  0  0  0  0  0
    4.5080   -2.6813    0.0000 C   0  0  0  0  0  0  0  0  0  0  0  0
    5.2224   -2.2688    0.0000 C   0  0  0  0  0  0  0  0  0  0  0  0
    5.2224    0.2063    0.0000 C   0  0  0  0  0  0  0  0  0  0  0  0
    5.2224    1.0313    0.0000 C   0  0  0  0  0  0  0  0  0  0  0  0
    5.9370   -0.2063    0.0000 C   0  0  0  0  0  0  0  0  0  0  0  0
    3.7935    1.0313    0.0000 C   0  0  0  0  0  0  0  0  0  0  0  0
    5.9370    1.4438    0.0000 C   0  0  0  0  0  0  0  0  0  0  0  0
    6.6515    0.2063    0.0000 C   0  0  0  0  0  0  0  0  0  0  0  0
    3.0791    1.4438    0.0000 C   0  0  0  0  0  0  0  0  0  0  0  0
    6.6515    1.0313    0.0000 C   0  0  0  0  0  0  0  0  0  0  0  0
    4.5080    1.4438    0.0000 C   0  0  0  0  0  0  0  0  0  0  0  0
    3.0791    2.2688    0.0000 C   0  0  0  0  0  0  0  0  0  0  0  0
    4.5080    2.2688    0.0000 C   0  0  0  0  0  0  0  0  0  0  0  0
    3.7935    2.6813    0.0000 C   0  0  0  0  0  0  0  0  0  0  0  0
    1.6500    1.4438    0.0000 C   0  0  0  0  0  0  0  0  0  0  0  0
    1.6500    2.2688    0.0000 C   0  0  0  0  0  0  0  0  0  0  0  0
    5.0796   -0.7013    0.0000 H   0  0  0  0  0  0  0  0  0  0  0  0
  1  5  1  0  0  0  0
  1  9  1  0  0  0  0
  6  2  1  1  0  0  0
  2 13  1  0  0  0  0
  3 16  1  0  0  0  0
  3 22  1  0  0  0  0
  4  7  1  0  0  0  0
  4  8  1  0  0  0  0
  5  6  1  0  0  0  0
  5  7  1  0  0  0  0
  5 24  1  6  0  0  0
  6 10  1  0  0  0  0
  8  9  1  0  0  0  0
 10 11  2  0  0  0  0
 10 12  1  0  0  0  0
 11 14  1  0  0  0  0
 12 15  2  0  0  0  0
 13 16  1  0  0  0  0
 13 18  2  0  0  0  0
 14 17  2  0  0  0  0
 15 17  1  0  0  0  0
 16 19  2  0  0  0  0
 18 20  1  0  0  0  0
 19 21  1  0  0  0  0
 20 21  2  0  0  0  0
 22 23  1  0  0  0  0
M  END
> <DRUGBANK_ID>
DB00234

> <DRUG_GROUPS>
approved; investigational

> <GENERIC_NAME>
Reboxetine

> <SALTS>
Reboxetine methanesulfonate

> <BRANDS>
Davedax; Edronax; Norebox; Prolift; Solvex; Vestra

> <CHEMICAL_FORMULA>
C19H23NO3

> <MOLECULAR_WEIGHT>
313.3908

> <EXACT_MASS>
313.167793607

> <IUPAC_NAME>
(2S)-2-[(S)-2-ethoxyphenoxy(phenyl)methyl]morpholine

> <IUPAC_TRADITIONAL_NAME>
reboxetine

> <INCHI_IDENTIFIER>
InChI=1S/C19H23NO3/c1-2-21-16-10-6-7-11-17(16)23-19(15-8-4-3-5-9-15)18-14-20-12-13-22-18/h3-11,18-20H,2,12-14H2,1H3/t18-,19-/m0/s1

> <INCHI_KEY>
InChIKey=CBQGYUDMJHNJBX-OALUTQOASA-N

> <SMILES>
[H][C@]1(CNCCO1)[C@@H](OC1=CC=CC=C1OCC)C1=CC=CC=C1

> <JCHEM_ACCEPTOR_COUNT>
4

> <JCHEM_DONOR_COUNT>
1

> <JCHEM_BASIC_PKA>
7.91

> <JCHEM_PHYSIOLOGICAL_CHARGE>
1

> <ALOGPS_LOGP>
3.06

> <JCHEM_LOGP>
3.28

> <ALOGPS_LOGS>
-4.2

> <JCHEM_POLARIZABILITY>
34.17

> <JCHEM_POLAR_SURFACE_AREA>
39.72

> <JCHEM_REFRACTIVITY>
89.48

> <JCHEM_ROTATABLE_BOND_COUNT>
6

> <ALOGPS_SOLUBILITY>
2.23e-02 g/l __ 

$$$$
