705
  Mrv0541 02231214562D          

 32 35  0  0  0  0            999 V2000
    2.3645    1.5132    0.0000 S   0  0  0  0  0  0  0  0  0  0  0  0
    7.7222    2.6401    0.0000 O   0  0  0  0  0  0  0  0  0  0  0  0
    2.7770    2.2276    0.0000 O   0  0  0  0  0  0  0  0  0  0  0  0
    1.9520    0.7986    0.0000 O   0  0  0  0  0  0  0  0  0  0  0  0
    8.5472   -0.2178    0.0000 N   0  0  0  0  0  0  0  0  0  0  0  0
    7.7222    1.2111    0.0000 N   0  0  0  0  0  0  0  0  0  0  0  0
    6.0031    2.5896    0.0000 N   0  0  0  0  0  0  0  0  0  0  0  0
    7.7222   -1.6468    0.0000 N   0  0  0  0  0  0  0  0  0  0  0  0
    9.7847   -0.9323    0.0000 N   0  0  0  0  0  0  0  0  0  0  0  0
    3.0791    1.1007    0.0000 N   0  0  0  0  0  0  0  0  0  0  0  0
    8.9597    0.4967    0.0000 C   0  0  0  0  0  0  0  0  0  0  0  0
    7.7222   -0.2178    0.0000 C   0  0  0  0  0  0  0  0  0  0  0  0
    8.5472    1.2111    0.0000 C   0  0  0  0  0  0  0  0  0  0  0  0
    7.3097    0.4967    0.0000 C   0  0  0  0  0  0  0  0  0  0  0  0
    8.9597   -0.9323    0.0000 C   0  0  0  0  0  0  0  0  0  0  0  0
    7.3097    1.9257    0.0000 C   0  0  0  0  0  0  0  0  0  0  0  0
    6.4846    1.9257    0.0000 C   0  0  0  0  0  0  0  0  0  0  0  0
    8.5472   -1.6468    0.0000 C   0  0  0  0  0  0  0  0  0  0  0  0
    6.0031    1.2617    0.0000 C   0  0  0  0  0  0  0  0  0  0  0  0
    5.2224    1.5132    0.0000 C   0  0  0  0  0  0  0  0  0  0  0  0
    5.2224    2.3382    0.0000 C   0  0  0  0  0  0  0  0  0  0  0  0
    7.3097   -2.3613    0.0000 C   0  0  0  0  0  0  0  0  0  0  0  0
    8.9597   -2.3613    0.0000 C   0  0  0  0  0  0  0  0  0  0  0  0
    4.5080    1.1007    0.0000 C   0  0  0  0  0  0  0  0  0  0  0  0
    4.5080    2.7507    0.0000 C   0  0  0  0  0  0  0  0  0  0  0  0
   10.1972   -1.6468    0.0000 C   0  0  0  0  0  0  0  0  0  0  0  0
    3.7935    1.5132    0.0000 C   0  0  0  0  0  0  0  0  0  0  0  0
    9.7847   -2.3613    0.0000 C   0  0  0  0  0  0  0  0  0  0  0  0
    3.7935    2.3382    0.0000 C   0  0  0  0  0  0  0  0  0  0  0  0
    6.4846   -2.3613    0.0000 C   0  0  0  0  0  0  0  0  0  0  0  0
    7.7222   -3.0758    0.0000 C   0  0  0  0  0  0  0  0  0  0  0  0
    1.6500    1.9257    0.0000 C   0  0  0  0  0  0  0  0  0  0  0  0
  1  3  2  0  0  0  0
  1  4  2  0  0  0  0
  1 10  1  0  0  0  0
  1 32  1  0  0  0  0
  2 16  2  0  0  0  0
  5 11  1  0  0  0  0
  5 12  1  0  0  0  0
  5 15  1  0  0  0  0
  6 13  1  0  0  0  0
  6 14  1  0  0  0  0
  6 16  1  0  0  0  0
  7 17  1  0  0  0  0
  7 21  1  0  0  0  0
  8 18  1  0  0  0  0
  8 22  1  0  0  0  0
  9 15  1  0  0  0  0
  9 26  2  0  0  0  0
 10 27  1  0  0  0  0
 11 13  1  0  0  0  0
 12 14  1  0  0  0  0
 15 18  2  0  0  0  0
 16 17  1  0  0  0  0
 17 19  2  0  0  0  0
 18 23  1  0  0  0  0
 19 20  1  0  0  0  0
 20 21  2  0  0  0  0
 20 24  1  0  0  0  0
 21 25  1  0  0  0  0
 22 30  1  0  0  0  0
 22 31  1  0  0  0  0
 23 28  2  0  0  0  0
 24 27  2  0  0  0  0
 25 29  2  0  0  0  0
 26 28  1  0  0  0  0
 27 29  1  0  0  0  0
M  END
> <DRUGBANK_ID>
DB00705

> <DRUG_GROUPS>
approved

> <GENERIC_NAME>
Delavirdine

> <SYNONYMS>
Delavirdin; Delavirdina; Delavirdine; Delavirdinum

> <SALTS>
Delavirdine mesylate

> <BRANDS>
Rescriptor

> <CHEMICAL_FORMULA>
C22H28N6O3S

> <MOLECULAR_WEIGHT>
456.561

> <EXACT_MASS>
456.194359482

> <IUPAC_NAME>
N-{2-[(4-{3-[(propan-2-yl)amino]pyridin-2-yl}piperazin-1-yl)carbonyl]-1H-indol-5-yl}methanesulfonamide

> <IUPAC_TRADITIONAL_NAME>
delavirdine

> <INCHI_IDENTIFIER>
InChI=1S/C22H28N6O3S/c1-15(2)24-19-5-4-8-23-21(19)27-9-11-28(12-10-27)22(29)20-14-16-13-17(26-32(3,30)31)6-7-18(16)25-20/h4-8,13-15,24-26H,9-12H2,1-3H3

> <INCHI_KEY>
InChIKey=WHBIGIKBNXZKFE-UHFFFAOYSA-N

> <SMILES>
CC(C)NC1=C(N=CC=C1)N1CCN(CC1)C(=O)C1=CC2=C(N1)C=CC(NS(C)(=O)=O)=C2

> <JCHEM_ACCEPTOR_COUNT>
6

> <JCHEM_DONOR_COUNT>
3

> <JCHEM_ACIDIC_PKA>
9.39

> <JCHEM_BASIC_PKA>
6.82

> <JCHEM_PHYSIOLOGICAL_CHARGE>
0

> <ALOGPS_LOGP>
2.77

> <JCHEM_LOGP>
1.02

> <ALOGPS_LOGS>
-3.7

> <JCHEM_POLARIZABILITY>
50.01

> <JCHEM_POLAR_SURFACE_AREA>
110.43

> <JCHEM_REFRACTIVITY>
126.64

> <JCHEM_ROTATABLE_BOND_COUNT>
5

> <ALOGPS_SOLUBILITY>
8.60e-02 g/l __ 

$$$$
