173
  Mrv0541 02231214292D          

 10 11  0  0  0  0            999 V2000
    3.8596    0.1235    0.0000 N   0  0  0  0  0  0  0  0  0  0  0  0
    3.8596   -1.2043    0.0000 N   0  0  0  0  0  0  0  0  0  0  0  0
    2.3645   -1.3654    0.0000 N   0  0  0  0  0  0  0  0  0  0  0  0
    1.6500   -0.1279    0.0000 N   0  0  0  0  0  0  0  0  0  0  0  0
    2.3645    1.1096    0.0000 N   0  0  0  0  0  0  0  0  0  0  0  0
    3.0790   -0.1279    0.0000 C   0  0  0  0  0  0  0  0  0  0  0  0
    3.0790   -0.9529    0.0000 C   0  0  0  0  0  0  0  0  0  0  0  0
    2.3645    0.2846    0.0000 C   0  0  0  0  0  0  0  0  0  0  0  0
    4.3411   -0.5404    0.0000 C   0  0  0  0  0  0  0  0  0  0  0  0
    1.6500   -0.9529    0.0000 C   0  0  0  0  0  0  0  0  0  0  0  0
  1  6  1  0  0  0  0
  1  9  1  0  0  0  0
  2  7  1  0  0  0  0
  2  9  2  0  0  0  0
  3  7  2  0  0  0  0
  3 10  1  0  0  0  0
  4  8  1  0  0  0  0
  4 10  2  0  0  0  0
  5  8  1  0  0  0  0
  6  7  1  0  0  0  0
  6  8  2  0  0  0  0
M  END
> <DRUGBANK_ID>
DB00173

> <DRUG_GROUPS>
approved; nutraceutical

> <GENERIC_NAME>
Adenine

> <SYNONYMS>
6-Aminopurine; Adenin; Vitamin B4

> <BRANDS>
Leuco-4

> <CHEMICAL_FORMULA>
C5H5N5

> <MOLECULAR_WEIGHT>
135.1267

> <EXACT_MASS>
135.054495185

> <IUPAC_NAME>
7H-purin-6-amine

> <IUPAC_TRADITIONAL_NAME>
adenine

> <INCHI_IDENTIFIER>
InChI=1S/C5H5N5/c6-4-3-5(9-1-7-3)10-2-8-4/h1-2H,(H3,6,7,8,9,10)

> <INCHI_KEY>
InChIKey=GFFGJBXGBJISGV-UHFFFAOYSA-N

> <SMILES>
NC1=C2NC=NC2=NC=N1

> <JCHEM_ACCEPTOR_COUNT>
4

> <JCHEM_DONOR_COUNT>
2

> <JCHEM_ACIDIC_PKA>
10.29

> <JCHEM_BASIC_PKA>
5.32

> <JCHEM_PHYSIOLOGICAL_CHARGE>
0

> <ALOGPS_LOGP>
-0.38

> <JCHEM_LOGP>
-0.57

> <ALOGPS_LOGS>
-1.1

> <JCHEM_POLARIZABILITY>
12.29

> <JCHEM_POLAR_SURFACE_AREA>
80.48

> <JCHEM_REFRACTIVITY>
38.22

> <JCHEM_ROTATABLE_BOND_COUNT>
0

> <ALOGPS_SOLUBILITY>
1.15e+01 g/l __ 

$$$$
