311
  Mrv0541 02231214352D          

 16 17  0  0  0  0            999 V2000
    7.3097    0.0000    0.0000 S   0  0  0  0  0  0  0  0  0  0  0  0
    6.0031    0.6639    0.0000 S   0  0  0  0  0  0  0  0  0  0  0  0
    3.0791    0.8250    0.0000 O   0  0  0  0  0  0  0  0  0  0  0  0
    7.3097    0.8250    0.0000 O   0  0  0  0  0  0  0  0  0  0  0  0
    7.3097   -0.8250    0.0000 O   0  0  0  0  0  0  0  0  0  0  0  0
    6.0031   -0.6639    0.0000 N   0  0  0  0  0  0  0  0  0  0  0  0
    8.1347    0.0000    0.0000 N   0  0  0  0  0  0  0  0  0  0  0  0
    5.2224    0.4125    0.0000 C   0  0  0  0  0  0  0  0  0  0  0  0
    5.2224   -0.4125    0.0000 C   0  0  0  0  0  0  0  0  0  0  0  0
    6.4846    0.0000    0.0000 C   0  0  0  0  0  0  0  0  0  0  0  0
    4.5080    0.8250    0.0000 C   0  0  0  0  0  0  0  0  0  0  0  0
    3.7935    0.4125    0.0000 C   0  0  0  0  0  0  0  0  0  0  0  0
    4.5080   -0.8250    0.0000 C   0  0  0  0  0  0  0  0  0  0  0  0
    3.7935   -0.4125    0.0000 C   0  0  0  0  0  0  0  0  0  0  0  0
    2.3645    0.4125    0.0000 C   0  0  0  0  0  0  0  0  0  0  0  0
    1.6500    0.8250    0.0000 C   0  0  0  0  0  0  0  0  0  0  0  0
  1  4  2  0  0  0  0
  1  5  2  0  0  0  0
  1  7  1  0  0  0  0
  1 10  1  0  0  0  0
  2  8  1  0  0  0  0
  2 10  1  0  0  0  0
  3 12  1  0  0  0  0
  3 15  1  0  0  0  0
  6  9  1  0  0  0  0
  6 10  2  0  0  0  0
  8  9  2  0  0  0  0
  8 11  1  0  0  0  0
  9 13  1  0  0  0  0
 11 12  2  0  0  0  0
 12 14  1  0  0  0  0
 13 14  2  0  0  0  0
 15 16  1  0  0  0  0
M  END
> <DRUGBANK_ID>
DB00311

> <DRUG_GROUPS>
approved

> <GENERIC_NAME>
Ethoxzolamide

> <SYNONYMS>
6-Ethoxy-1,3-benzothiazole-2-sulfonamide; Ethoxazolamide; Ethoxyzolamide

> <BRANDS>


> <CHEMICAL_FORMULA>
C9H10N2O3S2

> <MOLECULAR_WEIGHT>
258.317

> <EXACT_MASS>
258.013283576

> <IUPAC_NAME>
6-ethoxy-1,3-benzothiazole-2-sulfonamide

> <IUPAC_TRADITIONAL_NAME>
ethoxzolamide

> <INCHI_IDENTIFIER>
InChI=1S/C9H10N2O3S2/c1-2-14-6-3-4-7-8(5-6)15-9(11-7)16(10,12)13/h3-5H,2H2,1H3,(H2,10,12,13)

> <INCHI_KEY>
InChIKey=OUZWUKMCLIBBOG-UHFFFAOYSA-N

> <SMILES>
CCOC1=CC2=C(C=C1)N=C(S2)S(N)(=O)=O

> <JCHEM_ACCEPTOR_COUNT>
4

> <JCHEM_DONOR_COUNT>
1

> <JCHEM_ACIDIC_PKA>
7.51

> <JCHEM_BASIC_PKA>
-1.9

> <JCHEM_PHYSIOLOGICAL_CHARGE>
0

> <ALOGPS_LOGP>
1.87

> <JCHEM_LOGP>
1.6

> <ALOGPS_LOGS>
-2.6

> <JCHEM_POLARIZABILITY>
25.27

> <JCHEM_POLAR_SURFACE_AREA>
82.28

> <JCHEM_REFRACTIVITY>
59.97

> <JCHEM_ROTATABLE_BOND_COUNT>
3

> <ALOGPS_SOLUBILITY>
6.88e-01 g/l __ 

$$$$
