531
  Mrv0541 02231214452D          

 14 14  0  0  1  0            999 V2000
    1.6500   -0.8250    0.0000 Cl   0  0  0  0  0  0  0  0  0  0  0  0
    4.1251   -2.2540    0.0000 Cl   0  0  0  0  0  0  0  0  0  0  0  0
    4.1251    0.6040    0.0000 P    0  0  0  0  0  0  0  0  0  0  0  0
    4.8396    1.0165    0.0000 O    0  0  0  0  0  0  0  0  0  0  0  0
    4.5376   -0.1106    0.0000 O    0  0  0  0  0  0  0  0  0  0  0  0
    3.7126   -0.1106    0.0000 N    0  0  0  0  0  0  0  0  0  0  0  0
    3.4106    1.0165    0.0000 N    0  0  0  0  0  0  0  0  0  0  0  0
    3.4106    1.8415    0.0000 C    0  0  0  0  0  0  0  0  0  0  0  0
    4.1251    2.2540    0.0000 C    0  0  0  0  0  0  0  0  0  0  0  0
    4.8396    1.8415    0.0000 C    0  0  0  0  0  0  0  0  0  0  0  0
    2.8876   -0.1106    0.0000 C    0  0  0  0  0  0  0  0  0  0  0  0
    4.1251   -0.8250    0.0000 C    0  0  0  0  0  0  0  0  0  0  0  0
    2.4751   -0.8250    0.0000 C    0  0  0  0  0  0  0  0  0  0  0  0
    3.7126   -1.5395    0.0000 C    0  0  0  0  0  0  0  0  0  0  0  0
  1 13  1  0  0  0  0
  2 14  1  0  0  0  0
  3  4  1  0  0  0  0
  3  5  2  0  0  0  0
  3  6  1  0  0  0  0
  3  7  1  0  0  0  0
  4 10  1  0  0  0  0
  6 11  1  0  0  0  0
  6 12  1  0  0  0  0
  7  8  1  0  0  0  0
  8  9  1  0  0  0  0
  9 10  1  0  0  0  0
 11 13  1  0  0  0  0
 12 14  1  0  0  0  0
M  END
> <DRUGBANK_ID>
DB00531

> <DRUG_GROUPS>
approved; investigational

> <GENERIC_NAME>
Cyclophosphamide

> <SYNONYMS>
(+-)-Cyclophosphamide; (RS)-Cyclophosphamide; Ciclofosfamida; Ciclofosfamide; Cyclophosphamid; Cyclophosphamide; Cyclophosphamide anhydrous; Cyclophosphamidum; Cytophosphane; Ledoxina

> <BRANDS>
Cytoxan; Endoxan; Neosar; Procytox; Revimmune; Sendoxan

> <CHEMICAL_FORMULA>
C7H15Cl2N2O2P

> <MOLECULAR_WEIGHT>
261.086

> <EXACT_MASS>
260.02481966

> <IUPAC_NAME>
2-[bis(2-chloroethyl)amino]-1,3,2$l^{5}-oxazaphosphinan-2-one

> <IUPAC_TRADITIONAL_NAME>
cyclophosphamide

> <INCHI_IDENTIFIER>
InChI=1S/C7H15Cl2N2O2P/c8-2-5-11(6-3-9)14(12)10-4-1-7-13-14/h1-7H2,(H,10,12)

> <INCHI_KEY>
InChIKey=CMSMOCZEIVJLDB-UHFFFAOYSA-N

> <SMILES>
ClCCN(CCCl)P1(=O)NCCCO1

> <JCHEM_ACCEPTOR_COUNT>
2

> <JCHEM_DONOR_COUNT>
1

> <JCHEM_ACIDIC_PKA>
12.78

> <JCHEM_BASIC_PKA>
-0.57

> <JCHEM_PHYSIOLOGICAL_CHARGE>
0

> <ALOGPS_LOGP>
0.76

> <JCHEM_LOGP>
0.097

> <ALOGPS_LOGS>
-1.2

> <JCHEM_POLARIZABILITY>
23.72

> <JCHEM_POLAR_SURFACE_AREA>
41.57

> <JCHEM_REFRACTIVITY>
58.48

> <JCHEM_ROTATABLE_BOND_COUNT>
5

> <ALOGPS_SOLUBILITY>
1.51e+01 g/l __ 

$$$$
