818
  Mrv0541 02231215012D          

 13 13  0  0  0  0            999 V2000
    3.7935    1.1096    0.0000 O   0  0  0  0  0  0  0  0  0  0  0  0
    5.2224    0.2846    0.0000 C   0  0  0  0  0  0  0  0  0  0  0  0
    2.3645    0.2846    0.0000 C   0  0  0  0  0  0  0  0  0  0  0  0
    4.5080   -0.1279    0.0000 C   0  0  0  0  0  0  0  0  0  0  0  0
    3.0791   -0.1279    0.0000 C   0  0  0  0  0  0  0  0  0  0  0  0
    3.7935    0.2846    0.0000 C   0  0  0  0  0  0  0  0  0  0  0  0
    4.5080   -0.9529    0.0000 C   0  0  0  0  0  0  0  0  0  0  0  0
    3.0791   -0.9529    0.0000 C   0  0  0  0  0  0  0  0  0  0  0  0
    5.9370   -0.1279    0.0000 C   0  0  0  0  0  0  0  0  0  0  0  0
    5.2224    1.1096    0.0000 C   0  0  0  0  0  0  0  0  0  0  0  0
    1.6500   -0.1279    0.0000 C   0  0  0  0  0  0  0  0  0  0  0  0
    2.3645    1.1096    0.0000 C   0  0  0  0  0  0  0  0  0  0  0  0
    3.7935   -1.3654    0.0000 C   0  0  0  0  0  0  0  0  0  0  0  0
  1  6  1  0  0  0  0
  2  4  1  0  0  0  0
  2  9  1  0  0  0  0
  2 10  1  0  0  0  0
  3  5  1  0  0  0  0
  3 11  1  0  0  0  0
  3 12  1  0  0  0  0
  4  6  2  0  0  0  0
  4  7  1  0  0  0  0
  5  6  1  0  0  0  0
  5  8  2  0  0  0  0
  7 13  2  0  0  0  0
  8 13  1  0  0  0  0
M  END
> <DRUGBANK_ID>
DB00818

> <DRUG_GROUPS>
approved; investigational

> <GENERIC_NAME>
Propofol

> <SYNONYMS>
Disoprofol; Propofol; Propofol; Propofol; Propofolum

> <BRANDS>
Anepol; Anespro; Anesvan; Critifol; Diprivan; Disoprivan; Dormofol; Fresofol; Gobbifol; Hipnolam; Hypro; IV-Pro; Lipuro; Oleo-Lax; Plofed; Profol; Profolen; Propofabb; Propofil; Propogen; Propolipid; Propovan; Propoven; Provive; Recofol; Safol; Trivam; Troypofol; Unifol

> <CHEMICAL_FORMULA>
C12H18O

> <MOLECULAR_WEIGHT>
178.2707

> <EXACT_MASS>
178.135765198

> <IUPAC_NAME>
2,6-bis(propan-2-yl)phenol

> <IUPAC_TRADITIONAL_NAME>
propofol

> <INCHI_IDENTIFIER>
InChI=1S/C12H18O/c1-8(2)10-6-5-7-11(9(3)4)12(10)13/h5-9,13H,1-4H3

> <INCHI_KEY>
InChIKey=OLBCVFGFOZPWHH-UHFFFAOYSA-N

> <SMILES>
CC(C)C1=CC=CC(C(C)C)=C1O

> <JCHEM_ACCEPTOR_COUNT>
1

> <JCHEM_DONOR_COUNT>
1

> <JCHEM_ACIDIC_PKA>
10.98

> <JCHEM_BASIC_PKA>
-5

> <JCHEM_PHYSIOLOGICAL_CHARGE>
0

> <ALOGPS_LOGP>
3.81

> <JCHEM_LOGP>
4.16

> <ALOGPS_LOGS>
-3

> <JCHEM_POLARIZABILITY>
21.61

> <JCHEM_POLAR_SURFACE_AREA>
20.23

> <JCHEM_REFRACTIVITY>
56.42

> <JCHEM_ROTATABLE_BOND_COUNT>
2

> <ALOGPS_SOLUBILITY>
1.58e-01 g/l __ 

$$$$
