547
  Mrv0541 02231214462D          

 29 32  0  0  1  0            999 V2000
    4.1400    0.0373    0.0000 F   0  0  0  0  0  0  0  0  0  0  0  0
    3.9559    0.6428    0.0000 O   0  0  0  0  0  0  0  0  0  0  0  0
    6.5853    1.8799    0.0000 O   0  0  0  0  0  0  0  0  0  0  0  0
    8.1998    2.2203    0.0000 O   0  0  0  0  0  0  0  0  0  0  0  0
    1.6500   -2.2879    0.0000 O   0  0  0  0  0  0  0  0  0  0  0  0
    6.0994    0.2303    0.0000 C   0  0  1  0  0  0  0  0  0  0  0  0
    6.0994   -0.5947    0.0000 C   0  0  2  0  0  0  0  0  0  0  0  0
    5.3849   -1.0072    0.0000 C   0  0  1  0  0  0  0  0  0  0  0  0
    4.6704   -0.5947    0.0000 C   0  0  1  0  0  0  0  0  0  0  0  0
    6.8800    0.4817    0.0000 C   0  0  2  0  0  0  0  0  0  0  0  0
    6.8800   -0.8461    0.0000 C   0  0  0  0  0  0  0  0  0  0  0  0
    5.3849    0.6428    0.0000 C   0  0  0  0  0  0  0  0  0  0  0  0
    7.3614   -0.1822    0.0000 C   0  0  1  0  0  0  0  0  0  0  0  0
    4.6704    0.2303    0.0000 C   0  0  2  0  0  0  0  0  0  0  0  0
    3.9196   -1.0129    0.0000 C   0  0  1  0  0  0  0  0  0  0  0  0
    5.3981   -1.8664    0.0000 C   0  0  0  0  0  0  0  0  0  0  0  0
    6.0994    1.0553    0.0000 C   0  0  0  0  0  0  0  0  0  0  0  0
    4.6572   -2.3019    0.0000 C   0  0  0  0  0  0  0  0  0  0  0  0
    3.9130   -1.8722    0.0000 C   0  0  0  0  0  0  0  0  0  0  0  0
    7.1363    1.2659    0.0000 C   0  0  0  0  0  0  0  0  0  0  0  0
    8.1865   -0.1822    0.0000 C   0  0  0  0  0  0  0  0  0  0  0  0
    3.6435   -0.2355    0.0000 C   0  0  0  0  0  0  0  0  0  0  0  0
    3.1550   -0.5475    0.0000 C   0  0  0  0  0  0  0  0  0  0  0  0
    3.1413   -2.3257    0.0000 C   0  0  0  0  0  0  0  0  0  0  0  0
    7.9436    1.4360    0.0000 C   0  0  0  0  0  0  0  0  0  0  0  0
    2.3730   -0.9830    0.0000 C   0  0  0  0  0  0  0  0  0  0  0  0
    2.3660   -1.8781    0.0000 C   0  0  0  0  0  0  0  0  0  0  0  0
    6.1691   -1.2510    0.0000 H   0  0  0  0  0  0  0  0  0  0  0  0
    5.9589   -1.3328    0.0000 H   0  0  0  0  0  0  0  0  0  0  0  0
  9  1  1  6  0  0  0
 14  2  1  1  0  0  0
  3 20  2  0  0  0  0
  4 25  1  0  0  0  0
  5 27  2  0  0  0  0
  6  7  1  0  0  0  0
  6 10  1  0  0  0  0
  6 12  1  0  0  0  0
  6 17  1  1  0  0  0
  7  8  1  0  0  0  0
  7 11  1  0  0  0  0
  7 28  1  6  0  0  0
  8  9  1  0  0  0  0
  8 16  1  0  0  0  0
  8 29  1  1  0  0  0
  9 14  1  0  0  0  0
  9 15  1  0  0  0  0
 10 13  1  0  0  0  0
 10 20  1  1  0  0  0
 11 13  1  0  0  0  0
 12 14  1  0  0  0  0
 13 21  1  6  0  0  0
 15 19  1  0  0  0  0
 15 22  1  1  0  0  0
 15 23  1  0  0  0  0
 16 18  1  0  0  0  0
 18 19  1  0  0  0  0
 19 24  2  0  0  0  0
 20 25  1  0  0  0  0
 23 26  2  0  0  0  0
 24 27  1  0  0  0  0
 26 27  1  0  0  0  0
M  END
> <DRUGBANK_ID>
DB00547

> <DRUG_GROUPS>
approved

> <GENERIC_NAME>
Desoximetasone

> <SYNONYMS>
Desoximetason; Desoximetasona; Désoximétasone; Desoximetasonum; Desoxymethasone

> <BRANDS>
Esperson; Flubason; Topicort; Topicort LP; Topisolon

> <CHEMICAL_FORMULA>
C22H29FO4

> <MOLECULAR_WEIGHT>
376.4617

> <EXACT_MASS>
376.204987621

> <IUPAC_NAME>
(1R,2S,10S,11S,13R,14S,15S,17S)-1-fluoro-17-hydroxy-14-(2-hydroxyacetyl)-2,13,15-trimethyltetracyclo[8.7.0.0^{2,7}.0^{11,15}]heptadeca-3,6-dien-5-one

> <IUPAC_TRADITIONAL_NAME>
desoximetasone

> <INCHI_IDENTIFIER>
InChI=1S/C22H29FO4/c1-12-8-16-15-5-4-13-9-14(25)6-7-21(13,3)22(15,23)18(27)10-20(16,2)19(12)17(26)11-24/h6-7,9,12,15-16,18-19,24,27H,4-5,8,10-11H2,1-3H3/t12-,15+,16+,18+,19-,20+,21+,22+/m1/s1

> <INCHI_KEY>
InChIKey=VWVSBHGCDBMOOT-IIEHVVJPSA-N

> <SMILES>
[H][C@@]12C[C@@H](C)[C@H](C(=O)CO)[C@@]1(C)C[C@H](O)[C@@]1(F)[C@@]2([H])CCC2=CC(=O)C=C[C@]12C

> <JCHEM_ACCEPTOR_COUNT>
4

> <JCHEM_DONOR_COUNT>
2

> <JCHEM_ACIDIC_PKA>
13.44

> <JCHEM_BASIC_PKA>
-3.3

> <JCHEM_PHYSIOLOGICAL_CHARGE>
0

> <ALOGPS_LOGP>
2.13

> <JCHEM_LOGP>
2.35

> <ALOGPS_LOGS>
-4.1

> <JCHEM_POLARIZABILITY>
40.09

> <JCHEM_POLAR_SURFACE_AREA>
74.6

> <JCHEM_REFRACTIVITY>
101.17

> <JCHEM_ROTATABLE_BOND_COUNT>
2

> <ALOGPS_SOLUBILITY>
3.10e-02 g/l __ 

$$$$
