448
  Mrv0541 02231214412D          

 25 27  0  0  1  0            999 V2000
    5.1662    1.2111    0.0000 S   0  0  0  0  0  0  0  0  0  0  0  0
    8.5768   -2.0593    0.0000 F   0  0  0  0  0  0  0  0  0  0  0  0
   10.0057   -1.2343    0.0000 F   0  0  0  0  0  0  0  0  0  0  0  0
    9.7038   -2.3613    0.0000 F   0  0  0  0  0  0  0  0  0  0  0  0
    8.0537   -0.9323    0.0000 O   0  0  0  0  0  0  0  0  0  0  0  0
    5.5787    1.9257    0.0000 O   0  0  0  0  0  0  0  0  0  0  0  0
    3.8597    1.8751    0.0000 N   0  0  0  0  0  0  0  0  0  0  0  0
    3.8597    0.5472    0.0000 N   0  0  0  0  0  0  0  0  0  0  0  0
    6.8162    1.2111    0.0000 N   0  0  0  0  0  0  0  0  0  0  0  0
    5.5787    0.4967    0.0000 C   0  0  0  0  0  0  0  0  0  0  0  0
    6.4037    0.4967    0.0000 C   0  0  0  0  0  0  0  0  0  0  0  0
    6.8162   -0.2178    0.0000 C   0  0  0  0  0  0  0  0  0  0  0  0
    4.3412    1.2111    0.0000 C   0  0  0  0  0  0  0  0  0  0  0  0
    3.0791    1.6236    0.0000 C   0  0  0  0  0  0  0  0  0  0  0  0
    3.0791    0.7986    0.0000 C   0  0  0  0  0  0  0  0  0  0  0  0
    7.6412   -0.2178    0.0000 C   0  0  0  0  0  0  0  0  0  0  0  0
    6.4037   -0.9323    0.0000 C   0  0  0  0  0  0  0  0  0  0  0  0
    2.3645    2.0361    0.0000 C   0  0  0  0  0  0  0  0  0  0  0  0
    8.0537    0.4967    0.0000 C   0  0  0  0  0  0  0  0  0  0  0  0
    2.3645    0.3861    0.0000 C   0  0  0  0  0  0  0  0  0  0  0  0
    7.6412    1.2111    0.0000 C   0  0  0  0  0  0  0  0  0  0  0  0
    1.6500    1.6236    0.0000 C   0  0  0  0  0  0  0  0  0  0  0  0
    1.6500    0.7986    0.0000 C   0  0  0  0  0  0  0  0  0  0  0  0
    8.8788   -0.9323    0.0000 C   0  0  0  0  0  0  0  0  0  0  0  0
    9.2913   -1.6468    0.0000 C   0  0  0  0  0  0  0  0  0  0  0  0
  1  6  2  0  0  0  0
  1 10  1  0  0  0  0
  1 13  1  0  0  0  0
  2 25  1  0  0  0  0
  3 25  1  0  0  0  0
  4 25  1  0  0  0  0
  5 16  1  0  0  0  0
  5 24  1  0  0  0  0
  7 13  1  0  0  0  0
  7 14  1  0  0  0  0
  8 13  2  0  0  0  0
  8 15  1  0  0  0  0
  9 11  2  0  0  0  0
  9 21  1  0  0  0  0
 10 11  1  0  0  0  0
 11 12  1  0  0  0  0
 12 16  2  0  0  0  0
 12 17  1  0  0  0  0
 14 15  1  0  0  0  0
 14 18  2  0  0  0  0
 15 20  2  0  0  0  0
 16 19  1  0  0  0  0
 18 22  1  0  0  0  0
 19 21  2  0  0  0  0
 20 23  1  0  0  0  0
 22 23  2  0  0  0  0
 24 25  1  0  0  0  0
M  END
> <DRUGBANK_ID>
DB00448

> <DRUG_GROUPS>
approved; investigational

> <GENERIC_NAME>
Lansoprazole

> <SYNONYMS>
Lansoprazol; Lansoprazole; Lansoprazolum

> <BRANDS>
Agopton; Bamalite; Lansoloc; Lanzol; Lanzopral; Lanzopran; Limpidex; Monolitum; Ogast; Ogastro; Opiren; Prevacid; Prevacid 24HR; Prevacid IV; Prevacid Solutab; Prosogan; Takepron; Ulpax; Zoprol; Zoton

> <CHEMICAL_FORMULA>
C16H14F3N3O2S

> <MOLECULAR_WEIGHT>
369.361

> <EXACT_MASS>
369.075882012

> <IUPAC_NAME>
2-({[3-methyl-4-(2,2,2-trifluoroethoxy)pyridin-2-yl]methane}sulfinyl)-1H-1,3-benzodiazole

> <IUPAC_TRADITIONAL_NAME>
2-{[3-methyl-4-(2,2,2-trifluoroethoxy)pyridin-2-yl]methanesulfinyl}-1H-1,3-benzodiazole

> <INCHI_IDENTIFIER>
InChI=1S/C16H14F3N3O2S/c1-10-13(20-7-6-14(10)24-9-16(17,18)19)8-25(23)15-21-11-4-2-3-5-12(11)22-15/h2-7H,8-9H2,1H3,(H,21,22)

> <INCHI_KEY>
InChIKey=MJIHNNLFOKEZEW-UHFFFAOYSA-N

> <SMILES>
CC1=C(OCC(F)(F)F)C=CN=C1CS(=O)C1=NC2=CC=CC=C2N1

> <JCHEM_ACCEPTOR_COUNT>
4

> <JCHEM_DONOR_COUNT>
1

> <JCHEM_ACIDIC_PKA>
9.35

> <JCHEM_BASIC_PKA>
4.16

> <JCHEM_PHYSIOLOGICAL_CHARGE>
0

> <ALOGPS_LOGP>
2.84

> <JCHEM_LOGP>
3.03

> <ALOGPS_LOGS>
-3.2

> <JCHEM_POLARIZABILITY>
34.59

> <JCHEM_POLAR_SURFACE_AREA>
67.87

> <JCHEM_REFRACTIVITY>
87.61

> <JCHEM_ROTATABLE_BOND_COUNT>
6

> <ALOGPS_SOLUBILITY>
2.50e-01 g/l __ 

$$$$
