380
  Mrv0541 02231214382D          

 19 20  0  0  1  0            999 V2000
    5.2224    2.6813    0.0000 O   0  0  0  0  0  0  0  0  0  0  0  0
    2.3645    2.6813    0.0000 O   0  0  0  0  0  0  0  0  0  0  0  0
    4.5080   -2.6813    0.0000 O   0  0  0  0  0  0  0  0  0  0  0  0
    1.6500   -2.6813    0.0000 O   0  0  0  0  0  0  0  0  0  0  0  0
    3.7935    1.0313    0.0000 N   0  0  0  0  0  0  0  0  0  0  0  0
    3.0791   -1.0313    0.0000 N   0  0  0  0  0  0  0  0  0  0  0  0
    3.7935    2.6813    0.0000 N   0  0  0  0  0  0  0  0  0  0  0  0
    3.0791   -2.6813    0.0000 N   0  0  0  0  0  0  0  0  0  0  0  0
    3.7935    0.2063    0.0000 C   0  0  2  0  0  0  0  0  0  0  0  0
    3.0791   -0.2063    0.0000 C   0  0  0  0  0  0  0  0  0  0  0  0
    4.5080    1.4438    0.0000 C   0  0  0  0  0  0  0  0  0  0  0  0
    3.0791    1.4438    0.0000 C   0  0  0  0  0  0  0  0  0  0  0  0
    4.5080   -0.2063    0.0000 C   0  0  0  0  0  0  0  0  0  0  0  0
    3.7935   -1.4438    0.0000 C   0  0  0  0  0  0  0  0  0  0  0  0
    2.3645   -1.4438    0.0000 C   0  0  0  0  0  0  0  0  0  0  0  0
    4.5080    2.2688    0.0000 C   0  0  0  0  0  0  0  0  0  0  0  0
    3.0791    2.2688    0.0000 C   0  0  0  0  0  0  0  0  0  0  0  0
    3.7935   -2.2688    0.0000 C   0  0  0  0  0  0  0  0  0  0  0  0
    2.3645   -2.2688    0.0000 C   0  0  0  0  0  0  0  0  0  0  0  0
  1 16  2  0  0  0  0
  2 17  2  0  0  0  0
  3 18  2  0  0  0  0
  4 19  2  0  0  0  0
  5  9  1  0  0  0  0
  5 11  1  0  0  0  0
  5 12  1  0  0  0  0
  6 10  1  0  0  0  0
  6 14  1  0  0  0  0
  6 15  1  0  0  0  0
  7 16  1  0  0  0  0
  7 17  1  0  0  0  0
  8 18  1  0  0  0  0
  8 19  1  0  0  0  0
  9 10  1  0  0  0  0
  9 13  1  1  0  0  0
 11 16  1  0  0  0  0
 12 17  1  0  0  0  0
 14 18  1  0  0  0  0
 15 19  1  0  0  0  0
M  END
> <DRUGBANK_ID>
DB00380

> <DRUG_GROUPS>
approved

> <GENERIC_NAME>
Dexrazoxane

> <SYNONYMS>
Dexrazoxano; Dexrazoxanum; Dextrorazoxane; Razoxana; Razoxanum

> <SALTS>
Dexrazoxane hydrochloride

> <BRANDS>
Cardioxane; Zinecard

> <CHEMICAL_FORMULA>
C11H16N4O4

> <MOLECULAR_WEIGHT>
268.2691

> <EXACT_MASS>
268.11715502

> <IUPAC_NAME>
4-[(2S)-1-(3,5-dioxopiperazin-1-yl)propan-2-yl]piperazine-2,6-dione

> <IUPAC_TRADITIONAL_NAME>
4-[(2S)-1-(3,5-dioxopiperazin-1-yl)propan-2-yl]piperazine-2,6-dione

> <INCHI_IDENTIFIER>
InChI=1S/C11H16N4O4/c1-7(15-5-10(18)13-11(19)6-15)2-14-3-8(16)12-9(17)4-14/h7H,2-6H2,1H3,(H,12,16,17)(H,13,18,19)/t7-/m0/s1

> <INCHI_KEY>
InChIKey=BMKDZUISNHGIBY-ZETCQYMHSA-N

> <SMILES>
C[C@@H](CN1CC(=O)NC(=O)C1)N1CC(=O)NC(=O)C1

> <JCHEM_ACCEPTOR_COUNT>
6

> <JCHEM_DONOR_COUNT>
2

> <JCHEM_ACIDIC_PKA>
11.2

> <JCHEM_BASIC_PKA>
3.6

> <JCHEM_PHYSIOLOGICAL_CHARGE>
0

> <ALOGPS_LOGP>
-1.1

> <JCHEM_LOGP>
-2.7

> <ALOGPS_LOGS>
-1.4

> <JCHEM_POLARIZABILITY>
26.12

> <JCHEM_POLAR_SURFACE_AREA>
98.82

> <JCHEM_REFRACTIVITY>
64.25

> <JCHEM_ROTATABLE_BOND_COUNT>
3

> <ALOGPS_SOLUBILITY>
1.04e+01 g/l __ 

$$$$
