631
  Mrv0541 02231214502D          

 21 23  0  0  1  0            999 V2000
    1.6500   -0.5556    0.0000 Cl   0  0  0  0  0  0  0  0  0  0  0  0
    6.2821   -0.1650    0.0000 F    0  0  0  0  0  0  0  0  0  0  0  0
    4.3467    0.7358    0.0000 O    0  0  0  0  0  0  0  0  0  0  0  0
    6.2852    1.6299    0.0000 O    0  0  0  0  0  0  0  0  0  0  0  0
    5.1323    2.7996    0.0000 O    0  0  0  0  0  0  0  0  0  0  0  0
    4.5741   -0.7167    0.0000 N    0  0  0  0  0  0  0  0  0  0  0  0
    4.5741   -2.0446    0.0000 N    0  0  0  0  0  0  0  0  0  0  0  0
    3.0791   -0.5556    0.0000 N    0  0  0  0  0  0  0  0  0  0  0  0
    2.3645   -1.7931    0.0000 N    0  0  0  0  0  0  0  0  0  0  0  0
    3.0791   -3.0306    0.0000 N    0  0  0  0  0  0  0  0  0  0  0  0
    4.8305    0.0675    0.0000 C    0  0  1  0  0  0  0  0  0  0  0  0
    5.6170    1.1461    0.0000 C    0  0  1  0  0  0  0  0  0  0  0  0
    5.6155    0.3211    0.0000 C    0  0  2  0  0  0  0  0  0  0  0  0
    4.8328    1.4024    0.0000 C    0  0  1  0  0  0  0  0  0  0  0  0
    4.5792    2.1875    0.0000 C    0  0  0  0  0  0  0  0  0  0  0  0
    3.7935   -0.9681    0.0000 C    0  0  0  0  0  0  0  0  0  0  0  0
    5.0556   -1.3806    0.0000 C    0  0  0  0  0  0  0  0  0  0  0  0
    3.7935   -1.7931    0.0000 C    0  0  0  0  0  0  0  0  0  0  0  0
    3.0791   -2.2056    0.0000 C    0  0  0  0  0  0  0  0  0  0  0  0
    2.3645   -0.9681    0.0000 C    0  0  0  0  0  0  0  0  0  0  0  0
    6.2041    0.6198    0.0000 H    0  0  0  0  0  0  0  0  0  0  0  0
  1 20  1  0  0  0  0
  2 13  1  0  0  0  0
  3 11  1  0  0  0  0
  3 14  1  0  0  0  0
 12  4  1  1  0  0  0
  5 15  1  0  0  0  0
 11  6  1  6  0  0  0
  6 16  1  0  0  0  0
  6 17  1  0  0  0  0
  7 17  2  0  0  0  0
  7 18  1  0  0  0  0
  8 16  2  0  0  0  0
  8 20  1  0  0  0  0
  9 19  1  0  0  0  0
  9 20  2  0  0  0  0
 10 19  1  0  0  0  0
 11 13  1  0  0  0  0
 12 13  1  0  0  0  0
 12 14  1  0  0  0  0
 13 21  1  1  0  0  0
 14 15  1  6  0  0  0
 16 18  1  0  0  0  0
 18 19  2  0  0  0  0
M  END
> <DRUGBANK_ID>
DB00631

> <DRUG_GROUPS>
approved; investigational

> <GENERIC_NAME>
Clofarabine

> <SYNONYMS>
Clofarabin; Clofarabina; Clofarabine; Clofarabinum; Clofarex; Clolar

> <BRANDS>
Clofazic; Clolar; Evoltra

> <CHEMICAL_FORMULA>
C10H11ClFN5O3

> <MOLECULAR_WEIGHT>
303.677

> <EXACT_MASS>
303.053445155

> <IUPAC_NAME>
(2R,3R,4S,5R)-5-(6-amino-2-chloro-9H-purin-9-yl)-4-fluoro-2-(hydroxymethyl)oxolan-3-ol

> <IUPAC_TRADITIONAL_NAME>
clofarabine

> <INCHI_IDENTIFIER>
InChI=1S/C10H11ClFN5O3/c11-10-15-7(13)5-8(16-10)17(2-14-5)9-4(12)6(19)3(1-18)20-9/h2-4,6,9,18-19H,1H2,(H2,13,15,16)/t3-,4+,6-,9-/m1/s1

> <INCHI_KEY>
InChIKey=WDDPHFBMKLOVOX-AYQXTPAHSA-N

> <SMILES>
[H][C@]1(F)[C@H](O)[C@@H](CO)O[C@H]1N1C=NC2=C(N)N=C(Cl)N=C12

> <JCHEM_ACCEPTOR_COUNT>
7

> <JCHEM_DONOR_COUNT>
3

> <JCHEM_ACIDIC_PKA>
12.71

> <JCHEM_BASIC_PKA>
1.3

> <JCHEM_PHYSIOLOGICAL_CHARGE>
0

> <ALOGPS_LOGP>
0.32

> <JCHEM_LOGP>
-0.29

> <ALOGPS_LOGS>
-1.8

> <JCHEM_POLARIZABILITY>
26.06

> <JCHEM_POLAR_SURFACE_AREA>
119.31

> <JCHEM_REFRACTIVITY>
67

> <JCHEM_ROTATABLE_BOND_COUNT>
2

> <ALOGPS_SOLUBILITY>
4.89e+00 g/l __ 

$$$$
