992
  Mrv0541 02231215092D          

 10  9  0  0  0  0            999 V2000
    6.3793   -0.2063    0.0000 O   0  0  0  0  0  0  0  0  0  0  0  0
    3.5217   -1.0312    0.0000 O   0  0  0  0  0  0  0  0  0  0  0  0
    5.6650    1.0312    0.0000 O   0  0  0  0  0  0  0  0  0  0  0  0
    2.0928   -0.2063    0.0000 N   0  0  0  0  0  0  0  0  0  0  0  0
    4.2361    0.2063    0.0000 C   0  0  0  0  0  0  0  0  0  0  0  0
    4.9504   -0.2063    0.0000 C   0  0  0  0  0  0  0  0  0  0  0  0
    3.5217   -0.2063    0.0000 C   0  0  0  0  0  0  0  0  0  0  0  0
    2.8072    0.2063    0.0000 C   0  0  0  0  0  0  0  0  0  0  0  0
    5.6650    0.2063    0.0000 C   0  0  0  0  0  0  0  0  0  0  0  0
    7.0938    0.2063    0.0000 C   0  0  0  0  0  0  0  0  0  0  0  0
  1  9  1  0  0  0  0
  1 10  1  0  0  0  0
  2  7  2  0  0  0  0
  3  9  2  0  0  0  0
  4  8  1  0  0  0  0
  5  6  1  0  0  0  0
  5  7  1  0  0  0  0
  6  9  1  0  0  0  0
  7  8  1  0  0  0  0
M  END
> <DRUGBANK_ID>
DB00992

> <DRUG_GROUPS>
approved

> <GENERIC_NAME>
Methyl aminolevulinate

> <SYNONYMS>
5-Aminolevulinic acid methyl ester; Aminolevulinic acid methyl ester

> <BRANDS>


> <CHEMICAL_FORMULA>
C6H11NO3

> <MOLECULAR_WEIGHT>
145.1564

> <EXACT_MASS>
145.073893223

> <IUPAC_NAME>
methyl 5-amino-4-oxopentanoate

> <IUPAC_TRADITIONAL_NAME>
methyl aminolevulinate

> <INCHI_IDENTIFIER>
InChI=1S/C6H11NO3/c1-10-6(9)3-2-5(8)4-7/h2-4,7H2,1H3

> <INCHI_KEY>
InChIKey=YUUAYBAIHCDHHD-UHFFFAOYSA-N

> <SMILES>
COC(=O)CCC(=O)CN

> <JCHEM_ACCEPTOR_COUNT>
3

> <JCHEM_DONOR_COUNT>
1

> <JCHEM_ACIDIC_PKA>
16.12

> <JCHEM_BASIC_PKA>
7.83

> <JCHEM_PHYSIOLOGICAL_CHARGE>
1

> <ALOGPS_LOGP>
-1.3

> <JCHEM_LOGP>
-0.85

> <ALOGPS_LOGS>
0.18

> <JCHEM_POLARIZABILITY>
14.55

> <JCHEM_POLAR_SURFACE_AREA>
69.39

> <JCHEM_REFRACTIVITY>
35.22

> <JCHEM_ROTATABLE_BOND_COUNT>
5

> <ALOGPS_SOLUBILITY>
2.20e+02 g/l __ 

$$$$
