806
  Mrv0541 02231215012D          

 20 21  0  0  0  0            999 V2000
    6.6515    1.6500    0.0000 O   0  0  0  0  0  0  0  0  0  0  0  0
    5.2224   -0.8250    0.0000 O   0  0  0  0  0  0  0  0  0  0  0  0
    2.3645    1.6500    0.0000 O   0  0  0  0  0  0  0  0  0  0  0  0
    5.9370    0.4125    0.0000 N   0  0  0  0  0  0  0  0  0  0  0  0
    6.6515   -0.8250    0.0000 N   0  0  0  0  0  0  0  0  0  0  0  0
    8.1466    0.6639    0.0000 N   0  0  0  0  0  0  0  0  0  0  0  0
    8.1466   -0.6639    0.0000 N   0  0  0  0  0  0  0  0  0  0  0  0
    5.2224    0.8250    0.0000 C   0  0  0  0  0  0  0  0  0  0  0  0
    4.5080    0.4125    0.0000 C   0  0  0  0  0  0  0  0  0  0  0  0
    3.7935    0.8250    0.0000 C   0  0  0  0  0  0  0  0  0  0  0  0
    7.3659    0.4125    0.0000 C   0  0  0  0  0  0  0  0  0  0  0  0
    6.6515    0.8250    0.0000 C   0  0  0  0  0  0  0  0  0  0  0  0
    7.3659   -0.4125    0.0000 C   0  0  0  0  0  0  0  0  0  0  0  0
    5.9370   -0.4125    0.0000 C   0  0  0  0  0  0  0  0  0  0  0  0
    3.0791    0.4125    0.0000 C   0  0  0  0  0  0  0  0  0  0  0  0
    8.6280    0.0000    0.0000 C   0  0  0  0  0  0  0  0  0  0  0  0
    6.6515   -1.6500    0.0000 C   0  0  0  0  0  0  0  0  0  0  0  0
    8.4029    1.4482    0.0000 C   0  0  0  0  0  0  0  0  0  0  0  0
    2.3645    0.8250    0.0000 C   0  0  0  0  0  0  0  0  0  0  0  0
    1.6500    0.4125    0.0000 C   0  0  0  0  0  0  0  0  0  0  0  0
  1 12  2  0  0  0  0
  2 14  2  0  0  0  0
  3 19  2  0  0  0  0
  4  8  1  0  0  0  0
  4 12  1  0  0  0  0
  4 14  1  0  0  0  0
  5 13  1  0  0  0  0
  5 14  1  0  0  0  0
  5 17  1  0  0  0  0
  6 11  1  0  0  0  0
  6 16  1  0  0  0  0
  6 18  1  0  0  0  0
  7 13  1  0  0  0  0
  7 16  2  0  0  0  0
  8  9  1  0  0  0  0
  9 10  1  0  0  0  0
 10 15  1  0  0  0  0
 11 12  1  0  0  0  0
 11 13  2  0  0  0  0
 15 19  1  0  0  0  0
 19 20  1  0  0  0  0
M  END
> <DRUGBANK_ID>
DB00806

> <DRUG_GROUPS>
approved; investigational

> <GENERIC_NAME>
Pentoxifylline

> <SYNONYMS>
Oxpentifylline; Pentoxifilina; Pentoxifyllin; Pentoxifylline; Pentoxifyllinum

> <BRANDS>
Agapurin; Agapurin SR; An Ruo Ning; Angiopent; Ao Le Ni; Ao Nuo Hong; Aotong; Azupentat; Behrifil; Bo Shu Te; Claudicat; Durapental; Elorgan; Endopentoksas; Pentilin; Pentilin Retard; Pentoflux; Pentofyllin; Pentoksifilin; Pentolab; Pentomer; Pentoxil; Rentylin; Torental; Trental; Trentilin Retard

> <CHEMICAL_FORMULA>
C13H18N4O3

> <MOLECULAR_WEIGHT>
278.307

> <EXACT_MASS>
278.137890462

> <IUPAC_NAME>
3,7-dimethyl-1-(5-oxohexyl)-2,3,6,7-tetrahydro-1H-purine-2,6-dione

> <IUPAC_TRADITIONAL_NAME>
pentoxifylline

> <INCHI_IDENTIFIER>
InChI=1S/C13H18N4O3/c1-9(18)6-4-5-7-17-12(19)10-11(14-8-15(10)2)16(3)13(17)20/h8H,4-7H2,1-3H3

> <INCHI_KEY>
InChIKey=BYPFEZZEUUWMEJ-UHFFFAOYSA-N

> <SMILES>
CN1C=NC2=C1C(=O)N(CCCCC(C)=O)C(=O)N2C

> <JCHEM_ACCEPTOR_COUNT>
4

> <JCHEM_DONOR_COUNT>
0

> <JCHEM_ACIDIC_PKA>
19.64

> <JCHEM_BASIC_PKA>
-0.93

> <JCHEM_PHYSIOLOGICAL_CHARGE>
0

> <ALOGPS_LOGP>
0.08

> <JCHEM_LOGP>
0.23

> <ALOGPS_LOGS>
-1.7

> <JCHEM_POLARIZABILITY>
29.27

> <JCHEM_POLAR_SURFACE_AREA>
75.51

> <JCHEM_REFRACTIVITY>
73.52

> <JCHEM_ROTATABLE_BOND_COUNT>
5

> <ALOGPS_SOLUBILITY>
5.17e+00 g/l __ 

$$$$
