465
  Mrv0541 02231214422D          

 19 21  0  0  1  0            999 V2000
    6.9550   -1.8560    0.0000 O   0  0  0  0  0  0  0  0  0  0  0  0
    5.5967   -2.2999    0.0000 O   0  0  0  0  0  0  0  0  0  0  0  0
    4.6232    1.8275    0.0000 O   0  0  0  0  0  0  0  0  0  0  0  0
    5.1107    0.1748    0.0000 N   0  0  0  0  0  0  0  0  0  0  0  0
    5.8914   -0.9016    0.0000 C   0  0  0  0  0  0  0  0  0  0  0  0
    6.3729   -0.2377    0.0000 C   0  0  0  0  0  0  0  0  0  0  0  0
    5.8914    0.4263    0.0000 C   0  0  0  0  0  0  0  0  0  0  0  0
    5.1107   -0.6502    0.0000 C   0  0  0  0  0  0  0  0  0  0  0  0
    4.3261    0.4298    0.0000 C   0  0  0  0  0  0  0  0  0  0  0  0
    4.3261   -0.9052    0.0000 C   0  0  0  0  0  0  0  0  0  0  0  0
    3.8411   -0.2377    0.0000 C   0  0  0  0  0  0  0  0  0  0  0  0
    6.1477   -1.6858    0.0000 C   0  0  0  0  0  0  0  0  0  0  0  0
    4.0711    1.2145    0.0000 C   0  0  0  0  0  0  0  0  0  0  0  0
    3.2641    1.3860    0.0000 C   0  0  0  0  0  0  0  0  0  0  0  0
    2.7121    0.7729    0.0000 C   0  0  0  0  0  0  0  0  0  0  0  0
    3.0092    2.1707    0.0000 C   0  0  0  0  0  0  0  0  0  0  0  0
    1.9050    0.9444    0.0000 C   0  0  0  0  0  0  0  0  0  0  0  0
    2.2021    2.3422    0.0000 C   0  0  0  0  0  0  0  0  0  0  0  0
    1.6501    1.7290    0.0000 C   0  0  0  0  0  0  0  0  0  0  0  0
  1 12  1  0  0  0  0
  2 12  2  0  0  0  0
  3 13  2  0  0  0  0
  4  7  1  0  0  0  0
  4  8  1  0  0  0  0
  4  9  1  0  0  0  0
  5  6  1  0  0  0  0
  5  8  1  0  0  0  0
  5 12  1  0  0  0  0
  6  7  1  0  0  0  0
  8 10  2  0  0  0  0
  9 11  2  0  0  0  0
  9 13  1  0  0  0  0
 10 11  1  0  0  0  0
 13 14  1  0  0  0  0
 14 15  2  0  0  0  0
 14 16  1  0  0  0  0
 15 17  1  0  0  0  0
 16 18  2  0  0  0  0
 17 19  2  0  0  0  0
 18 19  1  0  0  0  0
M  END
> <DRUGBANK_ID>
DB00465

> <DRUG_GROUPS>
approved

> <GENERIC_NAME>
Ketorolac

> <SYNONYMS>
Ketorolaco; Ketorolacum

> <BRANDS>


> <CHEMICAL_FORMULA>
C15H13NO3

> <MOLECULAR_WEIGHT>
255.2686

> <EXACT_MASS>
255.089543287

> <IUPAC_NAME>
5-benzoyl-2,3-dihydro-1H-pyrrolizine-1-carboxylic acid

> <IUPAC_TRADITIONAL_NAME>
ketorolac

> <INCHI_IDENTIFIER>
InChI=1S/C15H13NO3/c17-14(10-4-2-1-3-5-10)13-7-6-12-11(15(18)19)8-9-16(12)13/h1-7,11H,8-9H2,(H,18,19)

> <INCHI_KEY>
InChIKey=OZWKMVRBQXNZKK-UHFFFAOYSA-N

> <SMILES>
OC(=O)C1CCN2C1=CC=C2C(=O)C1=CC=CC=C1

> <JCHEM_ACCEPTOR_COUNT>
3

> <JCHEM_DONOR_COUNT>
1

> <JCHEM_ACIDIC_PKA>
3.84

> <JCHEM_BASIC_PKA>
-7.8

> <JCHEM_PHYSIOLOGICAL_CHARGE>
-1

> <ALOGPS_LOGP>
2.66

> <JCHEM_LOGP>
2.28

> <ALOGPS_LOGS>
-2.7

> <JCHEM_POLARIZABILITY>
26.67

> <JCHEM_POLAR_SURFACE_AREA>
59.3

> <JCHEM_REFRACTIVITY>
70.19

> <JCHEM_ROTATABLE_BOND_COUNT>
3

> <ALOGPS_SOLUBILITY>
5.13e-01 g/l __ 

$$$$
