5596
  Mrv0541 02231214312D          

 29 33  0  0  1  0            999 V2000
    7.3397    0.4677    0.0000 O   0  0  0  0  0  0  0  0  0  0  0  0
    6.9699   -0.9125    0.0000 O   0  0  0  0  0  0  0  0  0  0  0  0
    8.5636    0.2542    0.0000 O   0  0  0  0  0  0  0  0  0  0  0  0
    2.9558    0.6113    0.0000 N   0  3  0  0  0  0  0  0  0  0  0  0
    4.7088    1.8208    0.0000 C   0  0  0  0  0  0  0  0  0  0  0  0
    4.4952    1.0238    0.0000 C   0  0  0  0  0  0  0  0  0  0  0  0
    4.4030    2.9334    0.0000 C   0  0  0  0  0  0  0  0  0  0  0  0
    3.6886    2.5209    0.0000 C   0  0  0  0  0  0  0  0  0  0  0  0
    2.8696   -0.2091    0.0000 C   0  0  0  0  0  0  0  0  0  0  0  0
    2.2020    0.9469    0.0000 C   0  0  0  0  0  0  0  0  0  0  0  0
    6.2472    1.4514    0.0000 C   0  0  0  0  0  0  0  0  0  0  0  0
    5.9016    0.1620    0.0000 C   0  0  0  0  0  0  0  0  0  0  0  0
    6.5428    0.6812    0.0000 C   0  0  0  0  0  0  0  0  0  0  0  0
    1.6500    0.3338    0.0000 C   0  0  0  0  0  0  0  0  0  0  0  0
    2.0625   -0.3807    0.0000 C   0  0  0  0  0  0  0  0  0  0  0  0
    7.5532   -0.3292    0.0000 C   0  0  0  0  0  0  0  0  0  0  0  0
    8.3501   -0.5427    0.0000 C   0  0  0  0  0  0  0  0  0  0  0  0
    9.1470   -0.7563    0.0000 C   0  0  0  0  0  0  0  0  0  0  0  0
    8.1366   -1.3397    0.0000 C   0  0  0  0  0  0  0  0  0  0  0  0
    9.7304   -0.1728    0.0000 C   0  0  0  0  0  0  0  0  0  0  0  0
    8.7200   -1.9230    0.0000 C   0  0  0  0  0  0  0  0  0  0  0  0
    9.3606   -1.5532    0.0000 C   0  0  0  0  0  0  0  0  0  0  0  0
    7.3397   -1.5532    0.0000 C   0  0  0  0  0  0  0  0  0  0  0  0
   10.5273   -0.3864    0.0000 C   0  0  0  0  0  0  0  0  0  0  0  0
    8.5065   -2.7199    0.0000 C   0  0  0  0  0  0  0  0  0  0  0  0
   10.1575   -1.7667    0.0000 C   0  0  0  0  0  0  0  0  0  0  0  0
    7.1261   -2.3500    0.0000 C   0  0  0  0  0  0  0  0  0  0  0  0
   10.7408   -1.1833    0.0000 C   0  0  0  0  0  0  0  0  0  0  0  0
    7.7096   -2.9334    0.0000 C   0  0  0  0  0  0  0  0  0  0  0  0
  1 13  1  0  0  0  0
  1 16  1  0  0  0  0
  2 16  2  0  0  0  0
  3 17  1  0  0  0  0
  4  5  1  0  0  0  0
  4  6  1  0  0  0  0
  4  9  1  0  0  0  0
  4 10  1  0  0  0  0
  5  7  1  0  0  0  0
  5 11  1  0  0  0  0
  6  8  1  0  0  0  0
  6 12  1  0  0  0  0
  7  8  1  0  0  0  0
  9 15  1  0  0  0  0
 10 14  1  0  0  0  0
 11 13  1  0  0  0  0
 12 13  1  0  0  0  0
 14 15  1  0  0  0  0
 16 17  1  0  0  0  0
 17 18  1  0  0  0  0
 17 19  1  0  0  0  0
 18 20  2  0  0  0  0
 18 22  1  0  0  0  0
 19 21  2  0  0  0  0
 19 23  1  0  0  0  0
 20 24  1  0  0  0  0
 21 25  1  0  0  0  0
 22 26  2  0  0  0  0
 23 27  2  0  0  0  0
 24 28  2  0  0  0  0
 25 29  2  0  0  0  0
 26 28  1  0  0  0  0
 27 29  1  0  0  0  0
M  END
> <DRUGBANK_ID>
DB00209

> <DRUG_GROUPS>
approved

> <GENERIC_NAME>
Trospium

> <SALTS>
Trospium chloride

> <BRANDS>
Flotros; Regurin; Sanctura; Spasmex; Spasmolyt; Spasmoplex; Tropez OD; Trosec

> <CHEMICAL_FORMULA>
C25H30NO3

> <MOLECULAR_WEIGHT>
392.5106

> <EXACT_MASS>
392.222568831

> <IUPAC_NAME>
3-[(2-hydroxy-2,2-diphenylacetyl)oxy]-8$l^{5}-azaspiro[bicyclo[3.2.1]octane-8,1'-pyrrolidin]-8-ylium

> <IUPAC_TRADITIONAL_NAME>
3-[(2-hydroxy-2,2-diphenylacetyl)oxy]-8$l^{5}-azaspiro[bicyclo[3.2.1]octane-8,1'-pyrrolidin]-8-ylium

> <INCHI_IDENTIFIER>
InChI=1S/C25H30NO3/c27-24(25(28,19-9-3-1-4-10-19)20-11-5-2-6-12-20)29-23-17-21-13-14-22(18-23)26(21)15-7-8-16-26/h1-6,9-12,21-23,28H,7-8,13-18H2/q+1

> <INCHI_KEY>
InChIKey=OYYDSUSKLWTMMQ-UHFFFAOYSA-N

> <SMILES>
OC(C(=O)OC1CC2CCC(C1)[N+]21CCCC1)(C1=CC=CC=C1)C1=CC=CC=C1

> <JCHEM_ACCEPTOR_COUNT>
2

> <JCHEM_DONOR_COUNT>
1

> <JCHEM_ACIDIC_PKA>
11.05

> <JCHEM_BASIC_PKA>
-4.5

> <JCHEM_PHYSIOLOGICAL_CHARGE>
1

> <ALOGPS_LOGP>
2.86

> <JCHEM_LOGP>
-0.5

> <ALOGPS_LOGS>
-6.8

> <JCHEM_POLARIZABILITY>
43.18

> <JCHEM_POLAR_SURFACE_AREA>
46.53

> <JCHEM_REFRACTIVITY>
124.04

> <JCHEM_ROTATABLE_BOND_COUNT>
5

> <ALOGPS_SOLUBILITY>
6.68e-05 g/l __ 

$$$$
