
  Mrv0541 02231214462D          

  5  4  0  0  0  0            999 V2000
    2.0930    0.0495    0.0000 O   0  0  0  0  0  0  0  0  0  0  0  0
    3.5220    0.8745    0.0000 O   0  0  0  0  0  0  0  0  0  0  0  0
    2.8075   -0.3630    0.0000 N   0  0  0  0  0  0  0  0  0  0  0  0
    3.5220    0.0495    0.0000 C   0  0  0  0  0  0  0  0  0  0  0  0
    4.2365   -0.3630    0.0000 C   0  0  0  0  0  0  0  0  0  0  0  0
  1  3  1  0  0  0  0
  2  4  2  0  0  0  0
  3  4  1  0  0  0  0
  4  5  1  0  0  0  0
M  END
> <DRUGBANK_ID>
DB00551

> <DRUG_GROUPS>
approved

> <GENERIC_NAME>
Acetohydroxamic Acid

> <SYNONYMS>
Acethydroxamsaure; Acetic acid, oxime; Acetohydroximic acid; Acetylhydroxamic acid; AHA; Cetohyroxamic acid; Methylhydroxamic acid; N-Hydroxyacetamide

> <BRANDS>
Lithostat

> <CHEMICAL_FORMULA>
C2H5NO2

> <MOLECULAR_WEIGHT>
75.0666

> <EXACT_MASS>
75.032028409

> <IUPAC_NAME>
N-hydroxyacetamide

> <IUPAC_TRADITIONAL_NAME>
acetohydroxamic acid

> <INCHI_IDENTIFIER>
InChI=1S/C2H5NO2/c1-2(4)3-5/h5H,1H3,(H,3,4)

> <INCHI_KEY>
InChIKey=RRUDCFGSUDOHDG-UHFFFAOYSA-N

> <SMILES>
CC(=O)NO

> <JCHEM_ACCEPTOR_COUNT>
2

> <JCHEM_DONOR_COUNT>
2

> <JCHEM_ACIDIC_PKA>
8.94

> <JCHEM_BASIC_PKA>
-5.4

> <JCHEM_PHYSIOLOGICAL_CHARGE>
0

> <ALOGPS_LOGP>
-1.5

> <JCHEM_LOGP>
-1

> <ALOGPS_LOGS>
0.83

> <JCHEM_POLARIZABILITY>
6.6

> <JCHEM_POLAR_SURFACE_AREA>
49.33

> <JCHEM_REFRACTIVITY>
16.23

> <JCHEM_ROTATABLE_BOND_COUNT>
0

> <ALOGPS_SOLUBILITY>
5.09e+02 g/l __ 

$$$$
