674
  Mrv0541 02231214552D          

 22 25  0  0  1  0            999 V2000
    4.2096   -1.4415    0.0000 O   0  0  0  0  0  0  0  0  0  0  0  0
    7.3588   -1.5573    0.0000 O   0  0  0  0  0  0  0  0  0  0  0  0
    2.4433   -1.0636    0.0000 O   0  0  0  0  0  0  0  0  0  0  0  0
    5.5414    1.3240    0.0000 N   0  0  0  0  0  0  0  0  0  0  0  0
    5.1288   -0.4833    0.0000 C   0  0  1  0  0  0  0  0  0  0  0  0
    5.8105   -0.0186    0.0000 C   0  0  2  0  0  0  0  0  0  0  0  0
    4.3855   -0.1254    0.0000 C   0  0  0  0  0  0  0  0  0  0  0  0
    5.8722   -0.1254    0.0000 C   0  0  0  0  0  0  0  0  0  0  0  0
    6.5538   -0.3765    0.0000 C   0  0  0  0  0  0  0  0  0  0  0  0
    5.1905   -1.3061    0.0000 C   0  0  0  0  0  0  0  0  0  0  0  0
    3.8202   -0.7197    0.0000 C   0  0  0  0  0  0  0  0  0  0  0  0
    6.0558    0.6790    0.0000 C   0  0  0  0  0  0  0  0  0  0  0  0
    4.2019    0.6790    0.0000 C   0  0  0  0  0  0  0  0  0  0  0  0
    6.6155   -1.1993    0.0000 C   0  0  2  0  0  0  0  0  0  0  0  0
    4.7163    1.3240    0.0000 C   0  0  0  0  0  0  0  0  0  0  0  0
    5.9338   -1.6640    0.0000 C   0  0  0  0  0  0  0  0  0  0  0  0
    3.0365   -0.4902    0.0000 C   0  0  0  0  0  0  0  0  0  0  0  0
    3.4101    0.8794    0.0000 C   0  0  0  0  0  0  0  0  0  0  0  0
    2.8335    0.3010    0.0000 C   0  0  0  0  0  0  0  0  0  0  0  0
    5.8993    2.0674    0.0000 C   0  0  0  0  0  0  0  0  0  0  0  0
    1.6501   -0.8367    0.0000 C   0  0  0  0  0  0  0  0  0  0  0  0
    5.7612    0.6396    0.0000 H   0  0  0  0  0  0  0  0  0  0  0  0
  1  6  1  0  0  0  0
  1 11  1  0  0  0  0
 14  2  1  1  0  0  0
  3 17  1  0  0  0  0
  3 21  1  0  0  0  0
  4 12  1  0  0  0  0
  4 15  1  0  0  0  0
  4 20  1  0  0  0  0
  5  6  1  0  0  0  0
  5  7  1  0  0  0  0
  5  8  1  6  0  0  0
  5 10  1  0  0  0  0
  6  9  1  0  0  0  0
  6 22  1  1  0  0  0
  7 11  1  0  0  0  0
  7 13  2  0  0  0  0
  8 12  1  0  0  0  0
  9 14  1  0  0  0  0
 10 16  2  0  0  0  0
 11 17  2  0  0  0  0
 13 15  1  0  0  0  0
 13 18  1  0  0  0  0
 14 16  1  0  0  0  0
 17 19  1  0  0  0  0
 18 19  2  0  0  0  0
M  END
> <DRUGBANK_ID>
DB00674

> <DRUG_GROUPS>
approved

> <GENERIC_NAME>
Galantamine

> <SYNONYMS>
(-)-Galanthamine; Galanthamine

> <SALTS>
Galantamine hydrobromide

> <BRANDS>
Lycoremine; Nivalin; Razadyne; Reminyl

> <CHEMICAL_FORMULA>
C17H21NO3

> <MOLECULAR_WEIGHT>
287.3535

> <EXACT_MASS>
287.152143543

> <IUPAC_NAME>
(1S,12S,14R)-9-methoxy-4-methyl-11-oxa-4-azatetracyclo[8.6.1.0^{1,12}.0^{6,17}]heptadeca-6,8,10(17),15-tetraen-14-ol

> <IUPAC_TRADITIONAL_NAME>
galantamine

> <INCHI_IDENTIFIER>
InChI=1S/C17H21NO3/c1-18-8-7-17-6-5-12(19)9-14(17)21-16-13(20-2)4-3-11(10-18)15(16)17/h3-6,12,14,19H,7-10H2,1-2H3/t12-,14-,17-/m0/s1

> <INCHI_KEY>
InChIKey=ASUTZQLVASHGKV-JDFRZJQESA-N

> <SMILES>
[H][C@]12C[C@@H](O)C=C[C@]11CCN(C)CC3=C1C(O2)=C(OC)C=C3

> <JCHEM_ACCEPTOR_COUNT>
4

> <JCHEM_DONOR_COUNT>
1

> <JCHEM_ACIDIC_PKA>
14.81

> <JCHEM_BASIC_PKA>
8.91

> <JCHEM_PHYSIOLOGICAL_CHARGE>
1

> <ALOGPS_LOGP>
1.39

> <JCHEM_LOGP>
1.16

> <ALOGPS_LOGS>
-2.2

> <JCHEM_POLARIZABILITY>
31.4

> <JCHEM_POLAR_SURFACE_AREA>
41.93

> <JCHEM_REFRACTIVITY>
82.3

> <JCHEM_ROTATABLE_BOND_COUNT>
1

> <ALOGPS_SOLUBILITY>
1.70e+00 g/l __ 

$$$$
