
  Mrv0541 02231215532D          

 21 21  0  0  1  0            999 V2000
   -0.7145    1.2375    0.0000 C   0  0  0  0  0  0  0  0  0  0  0  0
   -0.7145    0.4125    0.0000 C   0  0  1  0  0  0  0  0  0  0  0  0
   -1.4289    0.0000    0.0000 N   0  0  0  0  0  0  0  0  0  0  0  0
   -2.1434    0.4125    0.0000 C   0  0  0  0  0  0  0  0  0  0  0  0
   -2.8579    0.0000    0.0000 C   0  0  0  0  0  0  0  0  0  0  0  0
   -2.8579   -0.8250    0.0000 C   0  0  0  0  0  0  0  0  0  0  0  0
   -2.1434   -1.2375    0.0000 O   0  0  0  0  0  0  0  0  0  0  0  0
   -3.5724   -1.2375    0.0000 C   0  0  0  0  0  0  0  0  0  0  0  0
   -3.5724   -2.0625    0.0000 C   0  0  0  0  0  0  0  0  0  0  0  0
   -4.2868   -0.8250    0.0000 N   0  0  0  0  0  0  0  0  0  0  0  0
   -4.2868    0.0000    0.0000 C   0  0  0  0  0  0  0  0  0  0  0  0
   -3.5724    0.4125    0.0000 C   0  0  0  0  0  0  0  0  0  0  0  0
   -3.5724    1.2375    0.0000 C   0  0  0  0  0  0  0  0  0  0  0  0
   -4.2868    1.6500    0.0000 O   0  0  0  0  0  0  0  0  0  0  0  0
   -4.2868    2.4750    0.0000 P   0  0  0  0  0  0  0  0  0  0  0  0
   -4.2868    3.3000    0.0000 O   0  0  0  0  0  0  0  0  0  0  0  0
   -5.1118    2.4750    0.0000 O   0  0  0  0  0  0  0  0  0  0  0  0
   -3.4618    2.4750    0.0000 O   0  0  0  0  0  0  0  0  0  0  0  0
    0.0000    0.0000    0.0000 C   0  0  0  0  0  0  0  0  0  0  0  0
    0.7145    0.4125    0.0000 O   0  0  0  0  0  0  0  0  0  0  0  0
    0.0000   -0.8250    0.0000 O   0  0  0  0  0  0  0  0  0  0  0  0
  2  1  1  6  0  0  0
  2  3  1  0  0  0  0
  3  4  1  0  0  0  0
  4  5  1  0  0  0  0
  5  6  2  0  0  0  0
  6  7  1  0  0  0  0
  6  8  1  0  0  0  0
  8  9  1  0  0  0  0
  8 10  2  0  0  0  0
 10 11  1  0  0  0  0
 11 12  2  0  0  0  0
  5 12  1  0  0  0  0
 12 13  1  0  0  0  0
 13 14  1  0  0  0  0
 14 15  1  0  0  0  0
 15 16  1  0  0  0  0
 15 17  1  0  0  0  0
 15 18  2  0  0  0  0
  2 19  1  0  0  0  0
 19 20  1  0  0  0  0
 19 21  2  0  0  0  0
M  END
> <DRUGBANK_ID>
DB01993

> <DRUG_GROUPS>
experimental

> <GENERIC_NAME>
N-(5'-Phosphopyridoxyl)-D-Alanine

> <CHEMICAL_FORMULA>
C11H17N2O7P

> <MOLECULAR_WEIGHT>
320.2356

> <EXACT_MASS>
320.07733742

> <IUPAC_NAME>
(2R)-2-[({3-hydroxy-2-methyl-5-[(phosphonooxy)methyl]pyridin-4-yl}methyl)amino]propanoic acid

> <IUPAC_TRADITIONAL_NAME>
PDA

> <INCHI_IDENTIFIER>
InChI=1S/C11H17N2O7P/c1-6-10(14)9(4-13-7(2)11(15)16)8(3-12-6)5-20-21(17,18)19/h3,7,13-14H,4-5H2,1-2H3,(H,15,16)(H2,17,18,19)/t7-/m1/s1

> <INCHI_KEY>
InChIKey=WACJCHFWJNNBPR-SSDOTTSWSA-N

> <SMILES>
C[C@@H](NCC1=C(O)C(C)=NC=C1COP(O)(O)=O)C(O)=O

> <JCHEM_ACCEPTOR_COUNT>
8

> <JCHEM_DONOR_COUNT>
5

> <JCHEM_ACIDIC_PKA>
1.03

> <JCHEM_BASIC_PKA>
9.86

> <JCHEM_PHYSIOLOGICAL_CHARGE>
-2

> <ALOGPS_LOGP>
-1.7

> <JCHEM_LOGP>
-4.2

> <ALOGPS_LOGS>
-2.3

> <JCHEM_POLARIZABILITY>
28.92

> <JCHEM_POLAR_SURFACE_AREA>
149.21

> <JCHEM_REFRACTIVITY>
71.99

> <JCHEM_ROTATABLE_BOND_COUNT>
7

> <ALOGPS_SOLUBILITY>
1.48e+00 g/l __ 

$$$$
