
  Mrv0541 02231215462D          

 18 19  0  0  1  0            999 V2000
   -0.6674   -0.4849    0.0000 N   0  0  0  0  0  0  0  0  0  0  0  0
    0.0000    0.0000    0.0000 N   0  0  0  0  0  0  0  0  0  0  0  0
    0.0000    0.8250    0.0000 C   0  0  0  0  0  0  0  0  0  0  0  0
   -0.6674    1.3099    0.0000 O   0  0  0  0  0  0  0  0  0  0  0  0
    0.7846    1.0799    0.0000 N   0  0  0  0  0  0  0  0  0  0  0  0
    1.2695    0.4125    0.0000 C   0  0  1  0  0  0  0  0  0  0  0  0
    1.6820    1.1270    0.0000 O   0  0  0  0  0  0  0  0  0  0  0  0
    2.5070    1.1270    0.0000 C   0  0  2  0  0  0  0  0  0  0  0  0
    2.9195    1.8414    0.0000 C   0  0  0  0  0  0  0  0  0  0  0  0
    2.5070    2.5559    0.0000 O   0  0  0  0  0  0  0  0  0  0  0  0
    2.9195    0.4125    0.0000 C   0  0  1  0  0  0  0  0  0  0  0  0
    3.7445    0.4125    0.0000 O   0  0  0  0  0  0  0  0  0  0  0  0
    2.5070   -0.3020    0.0000 C   0  0  2  0  0  0  0  0  0  0  0  0
    2.9195   -1.0164    0.0000 O   0  0  0  0  0  0  0  0  0  0  0  0
    1.6820   -0.3020    0.0000 C   0  0  1  0  0  0  0  0  0  0  0  0
    1.2695   -1.0164    0.0000 O   0  0  0  0  0  0  0  0  0  0  0  0
    0.7846   -0.2549    0.0000 C   0  0  0  0  0  0  0  0  0  0  0  0
    0.7846   -1.0799    0.0000 O   0  0  0  0  0  0  0  0  0  0  0  0
  1  2  1  0  0  0  0
  2  3  1  0  0  0  0
  3  4  2  0  0  0  0
  3  5  1  0  0  0  0
  5  6  1  0  0  0  0
  6  7  1  6  0  0  0
  7  8  1  0  0  0  0
  8  9  1  6  0  0  0
  9 10  1  0  0  0  0
  8 11  1  0  0  0  0
 11 12  1  1  0  0  0
 11 13  1  0  0  0  0
 13 14  1  6  0  0  0
 13 15  1  0  0  0  0
  6 15  1  0  0  0  0
 15 16  1  1  0  0  0
  6 17  1  0  0  0  0
  2 17  1  0  0  0  0
 17 18  2  0  0  0  0
M  END
> <DRUGBANK_ID>
DB01843

> <DRUG_GROUPS>
experimental

> <GENERIC_NAME>
3-Amino-8,9,10-Trihydroxy-7-Hydroxymethyl-6-Oxa-1,3-Diaza-Spiro[4.5]Decane-2,4-Dione

> <CHEMICAL_FORMULA>
C8H13N3O7

> <MOLECULAR_WEIGHT>
263.2047

> <EXACT_MASS>
263.075349785

> <IUPAC_NAME>
(5R,7R,8S,9S,10R)-3-amino-8,9,10-trihydroxy-7-(hydroxymethyl)-6-oxa-1,3-diazaspiro[4.5]decane-2,4-dione

> <IUPAC_TRADITIONAL_NAME>
(5R,7R,8S,9S,10R)-3-amino-8,9,10-trihydroxy-7-(hydroxymethyl)-6-oxa-1,3-diazaspiro[4.5]decane-2,4-dione

> <INCHI_IDENTIFIER>
InChI=1S/C8H13N3O7/c9-11-6(16)8(10-7(11)17)5(15)4(14)3(13)2(1-12)18-8/h2-5,12-15H,1,9H2,(H,10,17)/t2-,3-,4+,5-,8-/m1/s1

> <INCHI_KEY>
InChIKey=KLJXQBRQPPSXPZ-UXDJRKLDSA-N

> <SMILES>
NN1C(=O)N[C@]2(O[C@H](CO)[C@@H](O)[C@H](O)[C@H]2O)C1=O

> <JCHEM_ACCEPTOR_COUNT>
8

> <JCHEM_DONOR_COUNT>
6

> <JCHEM_ACIDIC_PKA>
9.63

> <JCHEM_BASIC_PKA>
1.85

> <JCHEM_PHYSIOLOGICAL_CHARGE>
0

> <ALOGPS_LOGP>
-2.2

> <JCHEM_LOGP>
-3.6

> <ALOGPS_LOGS>
-0.09

> <JCHEM_POLARIZABILITY>
22.8

> <JCHEM_POLAR_SURFACE_AREA>
165.58

> <JCHEM_REFRACTIVITY>
53.45

> <JCHEM_ROTATABLE_BOND_COUNT>
1

> <ALOGPS_SOLUBILITY>
2.12e+02 g/l __ 

$$$$
