
  Mrv0541 02231215362D          

 34 36  0  0  1  0            999 V2000
   -1.4289   -2.4750    0.0000 O   0  0  0  0  0  0  0  0  0  0  0  0
   -2.1434   -2.8875    0.0000 C   0  0  0  0  0  0  0  0  0  0  0  0
   -2.1434   -3.7125    0.0000 C   0  0  1  0  0  0  0  0  0  0  0  0
   -2.8579   -4.1250    0.0000 O   0  0  0  0  0  0  0  0  0  0  0  0
   -2.8579   -4.9500    0.0000 C   0  0  1  0  0  0  0  0  0  0  0  0
   -3.5724   -5.3625    0.0000 O   0  0  0  0  0  0  0  0  0  0  0  0
   -4.2868   -4.9500    0.0000 C   0  0  1  0  0  0  0  0  0  0  0  0
   -4.2868   -4.1250    0.0000 C   0  0  2  0  0  0  0  0  0  0  0  0
   -3.5724   -3.7125    0.0000 O   0  0  0  0  0  0  0  0  0  0  0  0
   -5.0013   -3.7125    0.0000 C   0  0  1  0  0  0  0  0  0  0  0  0
   -5.0013   -2.8875    0.0000 O   0  0  0  0  0  0  0  0  0  0  0  0
   -5.7158   -4.1250    0.0000 C   0  0  1  0  0  0  0  0  0  0  0  0
   -5.7158   -4.9500    0.0000 O   0  0  0  0  0  0  0  0  0  0  0  0
   -5.0013   -5.3625    0.0000 C   0  0  2  0  0  0  0  0  0  0  0  0
   -5.0013   -6.1875    0.0000 C   0  0  0  0  0  0  0  0  0  0  0  0
   -4.2868   -6.6000    0.0000 O   0  0  0  0  0  0  0  0  0  0  0  0
   -6.4302   -3.7125    0.0000 O   0  0  0  0  0  0  0  0  0  0  0  0
   -7.1447   -4.1250    0.0000 C   0  0  1  0  0  0  0  0  0  0  0  0
   -7.1447   -4.9500    0.0000 C   0  0  2  0  0  0  0  0  0  0  0  0
   -6.4302   -5.3625    0.0000 O   0  0  0  0  0  0  0  0  0  0  0  0
   -7.8592   -5.3625    0.0000 C   0  0  1  0  0  0  0  0  0  0  0  0
   -7.8592   -6.1875    0.0000 F   0  0  0  0  0  0  0  0  0  0  0  0
   -8.5737   -4.9500    0.0000 C   0  0  2  0  0  0  0  0  0  0  0  0
   -9.2881   -5.3625    0.0000 O   0  5  0  0  0  0  0  0  0  0  0  0
   -8.5737   -4.1250    0.0000 O   0  0  0  0  0  0  0  0  0  0  0  0
   -7.8592   -3.7125    0.0000 C   0  0  2  0  0  0  0  0  0  0  0  0
   -7.8592   -2.8875    0.0000 C   0  0  0  0  0  0  0  0  0  0  0  0
   -7.1447   -2.4750    0.0000 O   0  0  0  0  0  0  0  0  0  0  0  0
   -2.1434   -5.3625    0.0000 C   0  0  2  0  0  0  0  0  0  0  0  0
   -2.1434   -6.1875    0.0000 O   0  0  0  0  0  0  0  0  0  0  0  0
   -1.4289   -4.9500    0.0000 C   0  0  1  0  0  0  0  0  0  0  0  0
   -0.7145   -5.3625    0.0000 O   0  0  0  0  0  0  0  0  0  0  0  0
   -1.4289   -4.1250    0.0000 C   0  0  2  0  0  0  0  0  0  0  0  0
   -0.7145   -3.7125    0.0000 O   0  0  0  0  0  0  0  0  0  0  0  0
  1  2  1  0  0  0  0
  3  2  1  6  0  0  0
  3  4  1  0  0  0  0
  4  5  1  0  0  0  0
  5  6  1  6  0  0  0
  7  6  1  6  0  0  0
  7  8  1  0  0  0  0
  8  9  1  1  0  0  0
  8 10  1  0  0  0  0
 10 11  1  6  0  0  0
 10 12  1  0  0  0  0
 12 13  1  0  0  0  0
 13 14  1  0  0  0  0
  7 14  1  0  0  0  0
 14 15  1  1  0  0  0
 15 16  1  0  0  0  0
 12 17  1  1  0  0  0
 18 17  1  1  0  0  0
 18 19  1  0  0  0  0
 19 20  1  6  0  0  0
 19 21  1  0  0  0  0
 21 22  1  1  0  0  0
 21 23  1  0  0  0  0
 23 24  1  6  0  0  0
 23 25  1  0  0  0  0
 25 26  1  0  0  0  0
 18 26  1  0  0  0  0
 26 27  1  6  0  0  0
 27 28  1  0  0  0  0
  5 29  1  0  0  0  0
 29 30  1  1  0  0  0
 29 31  1  0  0  0  0
 31 32  1  6  0  0  0
 31 33  1  0  0  0  0
  3 33  1  0  0  0  0
 33 34  1  1  0  0  0
M  END
> <DRUGBANK_ID>
DB01633

> <DRUG_GROUPS>
experimental

> <GENERIC_NAME>
Deoxy-2-Fluoro-B-D-Cellotrioside

> <BRANDS>


> <CHEMICAL_FORMULA>
C18H30FO15

> <MOLECULAR_WEIGHT>
505.4202

> <EXACT_MASS>
505.156873495

> <IUPAC_NAME>
(2R,3R,4S,5S,6R)-5-{[(2S,3R,4R,5S,6R)-3,4-dihydroxy-6-(hydroxymethyl)-5-{[(2S,3R,4S,5S,6R)-3,4,5-trihydroxy-6-(hydroxymethyl)oxan-2-yl]oxy}oxan-2-yl]oxy}-3-fluoro-4-hydroxy-6-(hydroxymethyl)oxan-2-olate

> <IUPAC_TRADITIONAL_NAME>
FCT

> <INCHI_IDENTIFIER>
InChI=1S/C18H30FO15/c19-7-9(24)14(5(2-21)30-16(7)29)33-18-13(28)11(26)15(6(3-22)32-18)34-17-12(27)10(25)8(23)4(1-20)31-17/h4-18,20-28H,1-3H2/q-1/t4-,5-,6-,7-,8-,9-,10+,11-,12-,13-,14-,15-,16-,17+,18+/m1/s1

> <INCHI_KEY>
InChIKey=HJNVNMBOOGFLMI-KLPSKQSZSA-N

> <SMILES>
OC[C@H]1O[C@@H](O[C@H]2[C@H](O)[C@@H](O)[C@H](O[C@H]3[C@H](O)[C@@H](F)[C@H]([O-])O[C@@H]3CO)O[C@@H]2CO)[C@H](O)[C@@H](O)[C@@H]1O

> <JCHEM_ACCEPTOR_COUNT>
15

> <JCHEM_DONOR_COUNT>
9

> <JCHEM_ACIDIC_PKA>
10.98

> <JCHEM_BASIC_PKA>
-3

> <JCHEM_PHYSIOLOGICAL_CHARGE>
0

> <ALOGPS_LOGP>
-2.2

> <JCHEM_LOGP>
-5.6

> <ALOGPS_LOGS>
-0.16

> <JCHEM_POLARIZABILITY>
45.94

> <JCHEM_POLAR_SURFACE_AREA>
251.28

> <JCHEM_REFRACTIVITY>
109.61

> <JCHEM_ROTATABLE_BOND_COUNT>
7

> <ALOGPS_SOLUBILITY>
3.60e+02 g/l __ 

$$$$
