
  Mrv0541 02231215522D          

 55 57  0  0  1  0            999 V2000
    8.5737  -14.0250    0.0000 N   0  0  0  0  0  0  0  0  0  0  0  0
    7.8592  -13.6125    0.0000 C   0  0  0  0  0  0  0  0  0  0  0  0
    7.1447  -14.0250    0.0000 N   0  0  0  0  0  0  0  0  0  0  0  0
    7.8592  -12.7875    0.0000 N   0  0  0  0  0  0  0  0  0  0  0  0
    8.5737  -12.3750    0.0000 C   0  0  0  0  0  0  0  0  0  0  0  0
    8.5737  -11.5500    0.0000 C   0  0  0  0  0  0  0  0  0  0  0  0
    9.2881  -11.1375    0.0000 C   0  0  0  0  0  0  0  0  0  0  0  0
    9.2881  -10.3125    0.0000 C   0  0  1  0  0  0  0  0  0  0  0  0
    8.5737   -9.9000    0.0000 N   0  0  0  0  0  0  0  0  0  0  0  0
    7.8592  -10.3125    0.0000 C   0  0  0  0  0  0  0  0  0  0  0  0
    7.8592  -11.1375    0.0000 O   0  0  0  0  0  0  0  0  0  0  0  0
    7.1447   -9.9000    0.0000 C   0  0  0  0  0  0  0  0  0  0  0  0
    7.1447   -9.0750    0.0000 O   0  0  0  0  0  0  0  0  0  0  0  0
    6.4302  -10.3125    0.0000 C   0  0  1  0  0  0  0  0  0  0  0  0
    6.4302  -11.1375    0.0000 C   0  0  0  0  0  0  0  0  0  0  0  0
    5.7158  -11.5500    0.0000 C   0  0  0  0  0  0  0  0  0  0  0  0
    5.7158  -12.3750    0.0000 C   0  0  0  0  0  0  0  0  0  0  0  0
    5.0013  -12.7875    0.0000 C   0  0  0  0  0  0  0  0  0  0  0  0
    4.2868  -12.3750    0.0000 C   0  0  0  0  0  0  0  0  0  0  0  0
    4.2868  -11.5500    0.0000 C   0  0  0  0  0  0  0  0  0  0  0  0
    5.0013  -11.1375    0.0000 C   0  0  0  0  0  0  0  0  0  0  0  0
    5.7158   -9.9000    0.0000 N   0  0  0  0  0  0  0  0  0  0  0  0
    5.0013  -10.3125    0.0000 C   0  0  0  0  0  0  0  0  0  0  0  0
    4.5164  -10.9799    0.0000 O   0  0  0  0  0  0  0  0  0  0  0  0
    4.2868   -9.9000    0.0000 O   0  0  0  0  0  0  0  0  0  0  0  0
    3.5724  -10.3125    0.0000 C   0  0  0  0  0  0  0  0  0  0  0  0
    2.8579   -9.9000    0.0000 C   0  0  0  0  0  0  0  0  0  0  0  0
    2.1434  -10.3125    0.0000 C   0  0  0  0  0  0  0  0  0  0  0  0
    1.4289   -9.9000    0.0000 C   0  0  0  0  0  0  0  0  0  0  0  0
    1.4289   -9.0750    0.0000 C   0  0  0  0  0  0  0  0  0  0  0  0
    2.1434   -8.6625    0.0000 C   0  0  0  0  0  0  0  0  0  0  0  0
    2.8579   -9.0750    0.0000 C   0  0  0  0  0  0  0  0  0  0  0  0
   10.0026   -9.9000    0.0000 C   0  0  0  0  0  0  0  0  0  0  0  0
   10.0026   -9.0750    0.0000 O   0  0  0  0  0  0  0  0  0  0  0  0
   10.7171  -10.3125    0.0000 N   0  0  0  0  0  0  0  0  0  0  0  0
   11.4315   -9.9000    0.0000 C   0  0  1  0  0  0  0  0  0  0  0  0
   11.4315   -9.0750    0.0000 C   0  0  0  0  0  0  0  0  0  0  0  0
   12.1460   -8.6625    0.0000 C   0  0  0  0  0  0  0  0  0  0  0  0
   12.1460   -7.8375    0.0000 C   0  0  0  0  0  0  0  0  0  0  0  0
   11.4315   -7.4250    0.0000 O   0  0  0  0  0  0  0  0  0  0  0  0
   12.8605   -7.4250    0.0000 O   0  0  0  0  0  0  0  0  0  0  0  0
   12.1460  -10.3125    0.0000 C   0  0  0  0  0  0  0  0  0  0  0  0
   12.1460  -11.1375    0.0000 O   0  0  0  0  0  0  0  0  0  0  0  0
   12.8605   -9.9000    0.0000 N   0  0  0  0  0  0  0  0  0  0  0  0
   13.5749  -10.3125    0.0000 C   0  0  2  0  0  0  0  0  0  0  0  0
   13.5749  -11.1375    0.0000 C   0  0  0  0  0  0  0  0  0  0  0  0
   14.2894  -11.5500    0.0000 C   0  0  0  0  0  0  0  0  0  0  0  0
   15.0039  -11.1375    0.0000 C   0  0  0  0  0  0  0  0  0  0  0  0
   15.7184  -11.5500    0.0000 C   0  0  0  0  0  0  0  0  0  0  0  0
   15.7184  -12.3750    0.0000 C   0  0  0  0  0  0  0  0  0  0  0  0
   15.0039  -12.7875    0.0000 C   0  0  0  0  0  0  0  0  0  0  0  0
   14.2894  -12.3750    0.0000 C   0  0  0  0  0  0  0  0  0  0  0  0
   14.2894   -9.9000    0.0000 C   0  0  0  0  0  0  0  0  0  0  0  0
   15.0039  -10.3125    0.0000 O   0  0  0  0  0  0  0  0  0  0  0  0
   14.2894   -9.0750    0.0000 O   0  0  0  0  0  0  0  0  0  0  0  0
  1  2  1  0  0  0  0
  2  3  2  0  0  0  0
  2  4  1  0  0  0  0
  4  5  1  0  0  0  0
  5  6  1  0  0  0  0
  6  7  1  0  0  0  0
  7  8  1  0  0  0  0
  8  9  1  1  0  0  0
  9 10  1  0  0  0  0
 10 11  2  0  0  0  0
 10 12  1  0  0  0  0
 12 13  2  0  0  0  0
 12 14  1  0  0  0  0
 14 15  1  0  0  0  0
 15 16  1  0  0  0  0
 16 17  1  0  0  0  0
 17 18  1  0  0  0  0
 18 19  1  0  0  0  0
 19 20  1  0  0  0  0
 20 21  1  0  0  0  0
 16 21  1  0  0  0  0
 14 22  1  1  0  0  0
 22 23  1  0  0  0  0
 23 24  2  0  0  0  0
 23 25  1  0  0  0  0
 25 26  1  0  0  0  0
 26 27  1  0  0  0  0
 27 28  2  0  0  0  0
 28 29  1  0  0  0  0
 29 30  2  0  0  0  0
 30 31  1  0  0  0  0
 31 32  2  0  0  0  0
 27 32  1  0  0  0  0
  8 33  1  0  0  0  0
 33 34  2  0  0  0  0
 33 35  1  0  0  0  0
 36 35  1  1  0  0  0
 36 37  1  0  0  0  0
 37 38  1  0  0  0  0
 38 39  1  0  0  0  0
 39 40  1  0  0  0  0
 39 41  2  0  0  0  0
 36 42  1  0  0  0  0
 42 43  2  0  0  0  0
 42 44  1  0  0  0  0
 45 44  1  1  0  0  0
 45 46  1  0  0  0  0
 46 47  1  0  0  0  0
 47 48  1  0  0  0  0
 48 49  1  0  0  0  0
 49 50  1  0  0  0  0
 50 51  1  0  0  0  0
 51 52  1  0  0  0  0
 47 52  1  0  0  0  0
 45 53  1  0  0  0  0
 53 54  1  0  0  0  0
 53 55  2  0  0  0  0
M  END
> <DRUGBANK_ID>
DB01984

> <DRUG_GROUPS>
experimental

> <GENERIC_NAME>
4-[2-(3-Benzyloxycarbonylamino-4-Cyclohexyl-1-Hydroxy-2-Oxo-Butylamino)-5-Guanidino-Pentanoylamino]-4-(1-Carboxy-2-Cyclohexyl-Ethylcarbamoyl)-Butyric Acid

> <CHEMICAL_FORMULA>
C38H57N7O10

> <MOLECULAR_WEIGHT>
771.9001

> <EXACT_MASS>
771.416691079

> <IUPAC_NAME>
(4S)-4-[(2R)-2-[(3R)-3-{[(benzyloxy)carbonyl]amino}-4-cyclohexyl-2-oxobutanamido]-5-carbamimidamidopentanamido]-4-{[(1R)-1-carboxy-2-cyclohexylethyl]carbamoyl}butanoic acid

> <IUPAC_TRADITIONAL_NAME>
(4S)-4-[(2R)-2-[(3R)-3-{[(benzyloxy)carbonyl]amino}-4-cyclohexyl-2-oxobutanamido]-5-carbamimidamidopentanamido]-4-{[(1R)-1-carboxy-2-cyclohexylethyl]carbamoyl}butanoic acid

> <INCHI_IDENTIFIER>
InChI=1S/C38H57N7O10/c39-37(40)41-20-10-17-27(33(49)42-28(18-19-31(46)47)34(50)44-30(36(52)53)22-25-13-6-2-7-14-25)43-35(51)32(48)29(21-24-11-4-1-5-12-24)45-38(54)55-23-26-15-8-3-9-16-26/h3,8-9,15-16,24-25,27-30H,1-2,4-7,10-14,17-23H2,(H,42,49)(H,43,51)(H,44,50)(H,45,54)(H,46,47)(H,52,53)(H4,39,40,41)/t27-,28+,29-,30-/m1/s1

> <INCHI_KEY>
InChIKey=LKCWMWZIRUHWBW-GOGZTAQTSA-N

> <SMILES>
NC(=N)NCCC[C@@H](NC(=O)C(=O)[C@@H](CC1CCCCC1)NC(=O)OCC1=CC=CC=C1)C(=O)N[C@@H](CCC(O)=O)C(=O)N[C@H](CC1CCCCC1)C(O)=O

> <JCHEM_ACCEPTOR_COUNT>
12

> <JCHEM_DONOR_COUNT>
9

> <JCHEM_ACIDIC_PKA>
3.27

> <JCHEM_BASIC_PKA>
11.93

> <JCHEM_PHYSIOLOGICAL_CHARGE>
-1

> <ALOGPS_LOGP>
1.28

> <JCHEM_LOGP>
1.25

> <ALOGPS_LOGS>
-5

> <JCHEM_POLARIZABILITY>
82.36

> <JCHEM_POLAR_SURFACE_AREA>
279.2

> <JCHEM_REFRACTIVITY>
208.98

> <JCHEM_ROTATABLE_BOND_COUNT>
23

> <ALOGPS_SOLUBILITY>
7.35e-03 g/l __ 

$$$$
