
  Mrv0541 04191212162D          

 29 32  0  0  0  0            999 V2000
   -2.2688   -1.2375    0.0000 C   0  0  0  0  0  0  0  0  0  0  0  0
   -2.9832   -0.8250    0.0000 C   0  0  0  0  0  0  0  0  0  0  0  0
   -3.6977   -1.2375    0.0000 C   0  0  0  0  0  0  0  0  0  0  0  0
   -3.6977   -2.0625    0.0000 C   0  0  0  0  0  0  0  0  0  0  0  0
   -2.9832   -2.4750    0.0000 C   0  0  0  0  0  0  0  0  0  0  0  0
   -2.2688   -2.0625    0.0000 C   0  0  0  0  0  0  0  0  0  0  0  0
   -1.5543   -2.4750    0.0000 S   0  0  0  0  0  0  0  0  0  0  0  0
   -0.8398   -2.0625    0.0000 C   0  0  0  0  0  0  0  0  0  0  0  0
   -0.8398   -1.2375    0.0000 C   0  0  0  0  0  0  0  0  0  0  0  0
   -1.5543   -0.8250    0.0000 N   0  0  0  0  0  0  0  0  0  0  0  0
   -0.1253   -0.8250    0.0000 C   0  0  0  0  0  0  0  0  0  0  0  0
   -0.1253   -2.4750    0.0000 C   0  0  0  0  0  0  0  0  0  0  0  0
    0.5892   -2.0625    0.0000 C   0  0  0  0  0  0  0  0  0  0  0  0
    0.5892   -1.2375    0.0000 C   0  0  0  0  0  0  0  0  0  0  0  0
   -1.5543    0.0000    0.0000 C   0  0  0  0  0  0  0  0  0  0  0  0
   -0.8398    0.4125    0.0000 C   0  0  0  0  0  0  0  0  0  0  0  0
   -0.8398    1.2375    0.0000 N   0  0  0  0  0  0  0  0  0  0  0  0
   -0.8398    2.8875    0.0000 N   0  0  0  0  0  0  0  0  0  0  0  0
   -1.5543    2.4750    0.0000 C   0  0  0  0  0  0  0  0  0  0  0  0
   -1.5543    1.6500    0.0000 C   0  0  0  0  0  0  0  0  0  0  0  0
   -0.1254    1.6500    0.0000 C   0  0  0  0  0  0  0  0  0  0  0  0
   -0.1254    2.4750    0.0000 C   0  0  0  0  0  0  0  0  0  0  0  0
   -0.8398    3.7125    0.0000 C   0  0  0  0  0  0  0  0  0  0  0  0
   -0.1254    4.1250    0.0000 C   0  0  0  0  0  0  0  0  0  0  0  0
    0.5891    3.7125    0.0000 O   0  0  0  0  0  0  0  0  0  0  0  0
    1.3036   -0.8250    0.0000 C   0  0  0  0  0  0  0  0  0  0  0  0
    1.3036    0.0000    0.0000 C   0  0  0  0  0  0  0  0  0  0  0  0
    0.5892    0.4125    0.0000 C   0  0  0  0  0  0  0  0  0  0  0  0
    2.0181   -1.2375    0.0000 O   0  0  0  0  0  0  0  0  0  0  0  0
  1  2  1  0  0  0  0
  1  6  2  0  0  0  0
  1 10  1  0  0  0  0
  2  3  2  0  0  0  0
  3  4  1  0  0  0  0
  4  5  2  0  0  0  0
  5  6  1  0  0  0  0
  6  7  1  0  0  0  0
  7  8  1  0  0  0  0
  9 10  1  0  0  0  0
 11  9  1  0  0  0  0
  8  9  2  0  0  0  0
  8 12  1  0  0  0  0
 11 14  2  0  0  0  0
 12 13  2  0  0  0  0
 13 14  1  0  0  0  0
 10 15  1  0  0  0  0
 15 16  1  0  0  0  0
 16 17  1  0  0  0  0
 20 17  1  0  0  0  0
 17 21  1  0  0  0  0
 18 19  1  0  0  0  0
 18 22  1  0  0  0  0
 19 20  1  0  0  0  0
 21 22  1  0  0  0  0
 18 23  1  0  0  0  0
 23 24  1  0  0  0  0
 24 25  1  0  0  0  0
 14 26  1  0  0  0  0
 26 27  1  0  0  0  0
 27 28  1  0  0  0  0
 26 29  2  0  0  0  0
M  END
> <DRUGBANK_ID>
DB01038

> <DRUG_GROUPS>
approved

> <GENERIC_NAME>
Carphenazine

> <SYNONYMS>
Carfenazine

> <BRANDS>


> <CHEMICAL_FORMULA>
C23H29N3O2S

> <MOLECULAR_WEIGHT>
411.56

> <EXACT_MASS>
411.198047877

> <IUPAC_NAME>
1-(10-{2-[4-(2-hydroxyethyl)piperazin-1-yl]ethyl}-10H-phenothiazin-2-yl)propan-1-one

> <IUPAC_TRADITIONAL_NAME>
carphenazine

> <INCHI_IDENTIFIER>
InChI=1S/C23H29N3O2S/c1-2-21(28)18-7-8-23-20(17-18)26(19-5-3-4-6-22(19)29-23)14-13-24-9-11-25(12-10-24)15-16-27/h3-8,17,27H,2,9-16H2,1H3

> <INCHI_KEY>
InChIKey=DYCNETKPCXPXNW-UHFFFAOYSA-N

> <SMILES>
CCC(=O)C1=CC2=C(SC3=C(C=CC=C3)N2CCN2CCN(CCO)CC2)C=C1

> <JCHEM_ACCEPTOR_COUNT>
5

> <JCHEM_DONOR_COUNT>
1

> <JCHEM_ACIDIC_PKA>
15.56

> <JCHEM_BASIC_PKA>
8

> <JCHEM_PHYSIOLOGICAL_CHARGE>
1

> <ALOGPS_LOGP>
2.84

> <JCHEM_LOGP>
3.29

> <ALOGPS_LOGS>
-3.7

> <JCHEM_POLARIZABILITY>
47.25

> <JCHEM_POLAR_SURFACE_AREA>
47.02

> <JCHEM_REFRACTIVITY>
121.46

> <JCHEM_ROTATABLE_BOND_COUNT>
7

> <ALOGPS_SOLUBILITY>
9.05e-02 g/l __ 

$$$$
