
  Mrv0541 02231215442D          

 32 31  0  0  1  0            999 V2000
   14.1355    8.9862    0.0000 C   0  0  0  0  0  0  0  0  0  0  0  0
   14.8500    8.5737    0.0000 C   0  0  0  0  0  0  0  0  0  0  0  0
   15.5645    8.9862    0.0000 C   0  0  0  0  0  0  0  0  0  0  0  0
   16.2789    8.5737    0.0000 C   0  0  0  0  0  0  0  0  0  0  0  0
   16.9934    8.9862    0.0000 C   0  0  0  0  0  0  0  0  0  0  0  0
   17.7079    8.5737    0.0000 C   0  0  0  0  0  0  0  0  0  0  0  0
   18.4224    8.9862    0.0000 C   0  0  0  0  0  0  0  0  0  0  0  0
   19.1368    8.5737    0.0000 C   0  0  0  0  0  0  0  0  0  0  0  0
   19.8513    8.9862    0.0000 C   0  0  0  0  0  0  0  0  0  0  0  0
   20.5658    8.5737    0.0000 C   0  0  0  0  0  0  0  0  0  0  0  0
   21.2802    8.9862    0.0000 C   0  0  0  0  0  0  0  0  0  0  0  0
   21.9947    8.5737    0.0000 C   0  0  0  0  0  0  0  0  0  0  0  0
   22.7092    8.9862    0.0000 C   0  0  2  0  0  0  0  0  0  0  0  0
   22.7092    9.8112    0.0000 C   0  0  0  0  0  0  0  0  0  0  0  0
   21.9947   10.2237    0.0000 C   0  0  0  0  0  0  0  0  0  0  0  0
   21.2802    9.8112    0.0000 O   0  0  0  0  0  0  0  0  0  0  0  0
   21.9947   11.0487    0.0000 O   0  0  0  0  0  0  0  0  0  0  0  0
   23.4237    8.5737    0.0000 O   0  0  0  0  0  0  0  0  0  0  0  0
   24.1381    8.9862    0.0000 C   0  0  0  0  0  0  0  0  0  0  0  0
   24.1381    9.8112    0.0000 O   0  0  0  0  0  0  0  0  0  0  0  0
   24.8526    8.5737    0.0000 C   0  0  0  0  0  0  0  0  0  0  0  0
   25.5671    8.9862    0.0000 C   0  0  0  0  0  0  0  0  0  0  0  0
   26.2815    8.5737    0.0000 C   0  0  0  0  0  0  0  0  0  0  0  0
   26.9960    8.9862    0.0000 C   0  0  0  0  0  0  0  0  0  0  0  0
   27.7105    8.5737    0.0000 C   0  0  0  0  0  0  0  0  0  0  0  0
   28.4249    8.9862    0.0000 C   0  0  0  0  0  0  0  0  0  0  0  0
   29.1394    8.5737    0.0000 C   0  0  0  0  0  0  0  0  0  0  0  0
   29.8539    8.9862    0.0000 C   0  0  0  0  0  0  0  0  0  0  0  0
   30.5684    8.5737    0.0000 C   0  0  0  0  0  0  0  0  0  0  0  0
   31.2828    8.9862    0.0000 C   0  0  0  0  0  0  0  0  0  0  0  0
   31.9973    8.5737    0.0000 C   0  0  0  0  0  0  0  0  0  0  0  0
   32.7118    8.9862    0.0000 C   0  0  0  0  0  0  0  0  0  0  0  0
  1  2  1  0  0  0  0
  2  3  1  0  0  0  0
  3  4  1  0  0  0  0
  4  5  1  0  0  0  0
  5  6  1  0  0  0  0
  6  7  1  0  0  0  0
  7  8  1  0  0  0  0
  8  9  1  0  0  0  0
  9 10  1  0  0  0  0
 10 11  1  0  0  0  0
 11 12  1  0  0  0  0
 12 13  1  0  0  0  0
 13 14  1  0  0  0  0
 14 15  1  0  0  0  0
 15 16  1  0  0  0  0
 15 17  2  0  0  0  0
 13 18  1  6  0  0  0
 18 19  1  0  0  0  0
 19 20  2  0  0  0  0
 19 21  1  0  0  0  0
 21 22  1  0  0  0  0
 22 23  1  0  0  0  0
 23 24  1  0  0  0  0
 24 25  1  0  0  0  0
 25 26  1  0  0  0  0
 26 27  1  0  0  0  0
 27 28  1  0  0  0  0
 28 29  1  0  0  0  0
 29 30  1  0  0  0  0
 30 31  1  0  0  0  0
 31 32  1  0  0  0  0
M  END
> <DRUGBANK_ID>
DB01814

> <DRUG_GROUPS>
experimental

> <GENERIC_NAME>
2-Tridecanoyloxy-Pentadecanoic Acid

> <CHEMICAL_FORMULA>
C28H54O4

> <MOLECULAR_WEIGHT>
454.726

> <EXACT_MASS>
454.402210216

> <IUPAC_NAME>
(3R)-3-(tridecanoyloxy)pentadecanoic acid

> <IUPAC_TRADITIONAL_NAME>
(3R)-3-(tridecanoyloxy)pentadecanoic acid

> <INCHI_IDENTIFIER>
InChI=1S/C28H54O4/c1-3-5-7-9-11-13-15-17-19-21-23-26(25-27(29)30)32-28(31)24-22-20-18-16-14-12-10-8-6-4-2/h26H,3-25H2,1-2H3,(H,29,30)/t26-/m1/s1

> <INCHI_KEY>
InChIKey=WLKQLKMXKFGMQI-AREMUKBSSA-N

> <SMILES>
CCCCCCCCCCCC[C@H](CC(O)=O)OC(=O)CCCCCCCCCCCC

> <JCHEM_ACCEPTOR_COUNT>
3

> <JCHEM_DONOR_COUNT>
1

> <JCHEM_ACIDIC_PKA>
4.52

> <JCHEM_BASIC_PKA>
-7

> <JCHEM_PHYSIOLOGICAL_CHARGE>
-1

> <ALOGPS_LOGP>
9.13

> <JCHEM_LOGP>
10.17

> <ALOGPS_LOGS>
-7.2

> <JCHEM_POLARIZABILITY>
59.94

> <JCHEM_POLAR_SURFACE_AREA>
63.6

> <JCHEM_REFRACTIVITY>
133.79

> <JCHEM_ROTATABLE_BOND_COUNT>
26

> <ALOGPS_SOLUBILITY>
2.97e-05 g/l __ 

$$$$
