
  Mrv0541 02231215392D          

  7  6  0  0  1  0            999 V2000
   -0.1914    0.7145    0.0000 O   0  0  0  0  0  0  0  0  0  0  0  0
    0.5230    1.1270    0.0000 C   0  0  0  0  0  0  0  0  0  0  0  0
    1.2375    0.7145    0.0000 C   0  0  1  0  0  0  0  0  0  0  0  0
    1.2375   -0.1105    0.0000 O   0  0  0  0  0  0  0  0  0  0  0  0
    1.9520    1.1270    0.0000 C   0  0  0  0  0  0  0  0  0  0  0  0
    2.6664    0.7145    0.0000 S   0  0  0  0  0  0  0  0  0  0  0  0
    3.3809    1.1270    0.0000 O   0  0  0  0  0  0  0  0  0  0  0  0
  1  2  1  0  0  0  0
  2  3  1  0  0  0  0
  3  4  1  6  0  0  0
  3  5  1  0  0  0  0
  5  6  1  0  0  0  0
  6  7  1  0  0  0  0
M  END
> <DRUGBANK_ID>
DB01684

> <DRUG_GROUPS>
experimental

> <GENERIC_NAME>
1-Hydroxy-1-Thio-Glycerol

> <CHEMICAL_FORMULA>
C3H8O3S

> <MOLECULAR_WEIGHT>
124.159

> <EXACT_MASS>
124.019414812

> <IUPAC_NAME>
(2R)-3-(hydroxysulfanyl)propane-1,2-diol

> <IUPAC_TRADITIONAL_NAME>
1-hydroxy-1-thio-glycerol

> <INCHI_IDENTIFIER>
InChI=1S/C3H8O3S/c4-1-3(5)2-7-6/h3-6H,1-2H2/t3-/m1/s1

> <INCHI_KEY>
InChIKey=DLQCXFUWHQZWJQ-GSVOUGTGSA-N

> <SMILES>
OC[C@@H](O)CSO

> <JCHEM_ACCEPTOR_COUNT>
3

> <JCHEM_DONOR_COUNT>
3

> <JCHEM_ACIDIC_PKA>
13.63

> <JCHEM_BASIC_PKA>
-2.9

> <JCHEM_PHYSIOLOGICAL_CHARGE>
0

> <ALOGPS_LOGP>
-1.8

> <JCHEM_LOGP>
-1.1

> <ALOGPS_LOGS>
0.69

> <JCHEM_POLARIZABILITY>
11.89

> <JCHEM_POLAR_SURFACE_AREA>
60.69

> <JCHEM_REFRACTIVITY>
28.48

> <JCHEM_ROTATABLE_BOND_COUNT>
3

> <ALOGPS_SOLUBILITY>
6.07e+02 g/l __ 

$$$$
