1135
  Mrv0541 02231215162D          

 74 79  0  0  1  0            999 V2000
   15.1934    3.3018    0.0000 O   0  0  0  0  0  0  0  0  0  0  0  0
    2.6299   10.1207    0.0000 O   0  0  0  0  0  0  0  0  0  0  0  0
   10.5615    5.9968    0.0000 O   0  0  0  0  0  0  0  0  0  0  0  0
    7.2616    7.4257    0.0000 O   0  0  0  0  0  0  0  0  0  0  0  0
   16.6632    4.1355    0.0000 O   0  0  0  0  0  0  0  0  0  0  0  0
    1.1601    9.2870    0.0000 O   0  0  0  0  0  0  0  0  0  0  0  0
   16.6632    5.8252    0.0000 O   0  0  0  0  0  0  0  0  0  0  0  0
    1.1601    7.5972    0.0000 O   0  0  0  0  0  0  0  0  0  0  0  0
   10.8931    3.3303    0.0000 O   0  0  0  0  0  0  0  0  0  0  0  0
    6.9301   10.0921    0.0000 O   0  0  0  0  0  0  0  0  0  0  0  0
   12.3220    0.8555    0.0000 O   0  0  0  0  0  0  0  0  0  0  0  0
    5.5012   12.5670    0.0000 O   0  0  0  0  0  0  0  0  0  0  0  0
   10.8931    1.6804    0.0000 O   0  0  0  0  0  0  0  0  0  0  0  0
    6.9301   11.7421    0.0000 O   0  0  0  0  0  0  0  0  0  0  0  0
    9.3241    5.2824    0.0000 O   0  0  0  0  0  0  0  0  0  0  0  0
    8.4991    8.1401    0.0000 O   0  0  0  0  0  0  0  0  0  0  0  0
   13.0365    4.5677    0.0000 N   0  3  0  0  0  0  0  0  0  0  0  0
    4.7867    8.8546    0.0000 N   0  3  0  0  0  0  0  0  0  0  0  0
   13.7509    4.1553    0.0000 C   0  0  0  0  0  0  0  0  0  0  0  0
    4.0723    9.2671    0.0000 C   0  0  0  0  0  0  0  0  0  0  0  0
   13.0365    5.3928    0.0000 C   0  0  0  0  0  0  0  0  0  0  0  0
    4.7867    8.0296    0.0000 C   0  0  0  0  0  0  0  0  0  0  0  0
   12.2115    4.5677    0.0000 C   0  0  0  0  0  0  0  0  0  0  0  0
    5.6116    8.8546    0.0000 C   0  0  0  0  0  0  0  0  0  0  0  0
   14.4654    4.5677    0.0000 C   0  0  0  0  0  0  0  0  0  0  0  0
    3.3579    8.8546    0.0000 C   0  0  0  0  0  0  0  0  0  0  0  0
   13.7509    5.8053    0.0000 C   0  0  0  0  0  0  0  0  0  0  0  0
    4.0723    7.6172    0.0000 C   0  0  0  0  0  0  0  0  0  0  0  0
   12.6240    3.8534    0.0000 C   0  0  0  0  0  0  0  0  0  0  0  0
    5.1992    9.5690    0.0000 C   0  0  0  0  0  0  0  0  0  0  0  0
   13.7509    3.3303    0.0000 C   0  0  0  0  0  0  0  0  0  0  0  0
    4.0723   10.0921    0.0000 C   0  0  0  0  0  0  0  0  0  0  0  0
   14.4654    5.3928    0.0000 C   0  0  0  0  0  0  0  0  0  0  0  0
    3.3579    8.0296    0.0000 C   0  0  0  0  0  0  0  0  0  0  0  0
   11.7991    5.2824    0.0000 C   0  0  0  0  0  0  0  0  0  0  0  0
    6.0241    8.1401    0.0000 C   0  0  0  0  0  0  0  0  0  0  0  0
   15.2029    4.1268    0.0000 C   0  0  0  0  0  0  0  0  0  0  0  0
    2.6203    9.2957    0.0000 C   0  0  0  0  0  0  0  0  0  0  0  0
   13.0365    2.9178    0.0000 C   0  0  0  0  0  0  0  0  0  0  0  0
    4.7867   10.5045    0.0000 C   0  0  0  0  0  0  0  0  0  0  0  0
   15.2029    5.8339    0.0000 C   0  0  0  0  0  0  0  0  0  0  0  0
    2.6203    7.5885    0.0000 C   0  0  0  0  0  0  0  0  0  0  0  0
   10.9741    5.2824    0.0000 C   0  0  0  0  0  0  0  0  0  0  0  0
    6.8492    8.1401    0.0000 C   0  0  0  0  0  0  0  0  0  0  0  0
   15.9504    4.5506    0.0000 C   0  0  0  0  0  0  0  0  0  0  0  0
    1.8729    8.8718    0.0000 C   0  0  0  0  0  0  0  0  0  0  0  0
   15.9504    5.4100    0.0000 C   0  0  0  0  0  0  0  0  0  0  0  0
    1.8729    8.0124    0.0000 C   0  0  0  0  0  0  0  0  0  0  0  0
   13.0365    2.0929    0.0000 C   0  0  0  0  0  0  0  0  0  0  0  0
    4.7867   11.3295    0.0000 C   0  0  0  0  0  0  0  0  0  0  0  0
   12.3220    3.3303    0.0000 C   0  0  0  0  0  0  0  0  0  0  0  0
    5.5012   10.0921    0.0000 C   0  0  0  0  0  0  0  0  0  0  0  0
   11.6077    2.9178    0.0000 C   0  0  0  0  0  0  0  0  0  0  0  0
    6.2156   10.5045    0.0000 C   0  0  0  0  0  0  0  0  0  0  0  0
   12.3220    1.6804    0.0000 C   0  0  0  0  0  0  0  0  0  0  0  0
    5.5012   11.7421    0.0000 C   0  0  0  0  0  0  0  0  0  0  0  0
   11.6077    2.0929    0.0000 C   0  0  0  0  0  0  0  0  0  0  0  0
    6.2156   11.3295    0.0000 C   0  0  0  0  0  0  0  0  0  0  0  0
   15.9030    2.8812    0.0000 C   0  0  0  0  0  0  0  0  0  0  0  0
    1.9202   10.5413    0.0000 C   0  0  0  0  0  0  0  0  0  0  0  0
    9.7365    5.9968    0.0000 C   0  0  0  0  0  0  0  0  0  0  0  0
    8.0866    7.4257    0.0000 C   0  0  0  0  0  0  0  0  0  0  0  0
    9.3241    6.7112    0.0000 C   0  0  0  0  0  0  0  0  0  0  0  0
    8.4991    6.7112    0.0000 C   0  0  0  0  0  0  0  0  0  0  0  0
   17.3793    4.5451    0.0000 C   0  0  0  0  0  0  0  0  0  0  0  0
    0.4438    8.8773    0.0000 C   0  0  0  0  0  0  0  0  0  0  0  0
   16.6600    6.6503    0.0000 C   0  0  0  0  0  0  0  0  0  0  0  0
    1.1632    6.7722    0.0000 C   0  0  0  0  0  0  0  0  0  0  0  0
   10.1788    2.9178    0.0000 C   0  0  0  0  0  0  0  0  0  0  0  0
    7.6446   10.5045    0.0000 C   0  0  0  0  0  0  0  0  0  0  0  0
   13.0365    0.4429    0.0000 C   0  0  0  0  0  0  0  0  0  0  0  0
    4.7867   12.9795    0.0000 C   0  0  0  0  0  0  0  0  0  0  0  0
   10.8931    0.8555    0.0000 C   0  0  0  0  0  0  0  0  0  0  0  0
    6.9301   12.5670    0.0000 C   0  0  0  0  0  0  0  0  0  0  0  0
  1 37  1  0  0  0  0
  1 59  1  0  0  0  0
  2 38  1  0  0  0  0
  2 60  1  0  0  0  0
  3 43  1  0  0  0  0
  3 61  1  0  0  0  0
  4 44  1  0  0  0  0
  4 62  1  0  0  0  0
  5 45  1  0  0  0  0
  5 65  1  0  0  0  0
  6 46  1  0  0  0  0
  6 66  1  0  0  0  0
  7 47  1  0  0  0  0
  7 67  1  0  0  0  0
  8 48  1  0  0  0  0
  8 68  1  0  0  0  0
  9 53  1  0  0  0  0
  9 69  1  0  0  0  0
 10 54  1  0  0  0  0
 10 70  1  0  0  0  0
 11 55  1  0  0  0  0
 11 71  1  0  0  0  0
 12 56  1  0  0  0  0
 12 72  1  0  0  0  0
 13 57  1  0  0  0  0
 13 73  1  0  0  0  0
 14 58  1  0  0  0  0
 14 74  1  0  0  0  0
 15 61  2  0  0  0  0
 16 62  2  0  0  0  0
 17 19  1  0  0  0  0
 17 21  1  0  0  0  0
 17 23  1  0  0  0  0
 17 29  1  0  0  0  0
 18 20  1  0  0  0  0
 18 22  1  0  0  0  0
 18 24  1  0  0  0  0
 18 30  1  0  0  0  0
 19 25  1  0  0  0  0
 19 31  1  0  0  0  0
 20 26  1  0  0  0  0
 20 32  1  0  0  0  0
 21 27  1  0  0  0  0
 22 28  1  0  0  0  0
 23 35  1  0  0  0  0
 24 36  1  0  0  0  0
 25 33  2  0  0  0  0
 25 37  1  0  0  0  0
 26 34  2  0  0  0  0
 26 38  1  0  0  0  0
 27 33  1  0  0  0  0
 28 34  1  0  0  0  0
 31 39  1  0  0  0  0
 32 40  1  0  0  0  0
 33 41  1  0  0  0  0
 34 42  1  0  0  0  0
 35 43  1  0  0  0  0
 36 44  1  0  0  0  0
 37 45  2  0  0  0  0
 38 46  2  0  0  0  0
 39 49  2  0  0  0  0
 39 51  1  0  0  0  0
 40 50  2  0  0  0  0
 40 52  1  0  0  0  0
 41 47  2  0  0  0  0
 42 48  2  0  0  0  0
 45 47  1  0  0  0  0
 46 48  1  0  0  0  0
 49 55  1  0  0  0  0
 50 56  1  0  0  0  0
 51 53  2  0  0  0  0
 52 54  2  0  0  0  0
 53 57  1  0  0  0  0
 54 58  1  0  0  0  0
 55 57  2  0  0  0  0
 56 58  2  0  0  0  0
 61 63  1  0  0  0  0
 62 64  1  0  0  0  0
 63 64  1  0  0  0  0
M  END
> <DRUGBANK_ID>
DB01135

> <DRUG_GROUPS>
approved

> <GENERIC_NAME>
Doxacurium chloride

> <BRANDS>


> <CHEMICAL_FORMULA>
C56H78N2O16

> <MOLECULAR_WEIGHT>
1035.2223

> <EXACT_MASS>
1034.535134458

> <IUPAC_NAME>
6,7,8-trimethoxy-2-methyl-2-(3-{[4-oxo-4-(3-{6,7,8-trimethoxy-2-methyl-1-[(3,4,5-trimethoxyphenyl)methyl]-1,2,3,4-tetrahydroisoquinolin-2-ium-2-yl}propoxy)butanoyl]oxy}propyl)-1-[(3,4,5-trimethoxyphenyl)methyl]-1,2,3,4-tetrahydroisoquinolin-2-ium

> <IUPAC_TRADITIONAL_NAME>
6,7,8-trimethoxy-2-methyl-2-(3-{[4-oxo-4-(3-{6,7,8-trimethoxy-2-methyl-1-[(3,4,5-trimethoxyphenyl)methyl]-3,4-dihydro-1H-isoquinolin-2-ium-2-yl}propoxy)butanoyl]oxy}propyl)-1-[(3,4,5-trimethoxyphenyl)methyl]-3,4-dihydro-1H-isoquinolin-2-ium

> <INCHI_IDENTIFIER>
InChI=1S/C56H78N2O16/c1-57(23-19-37-33-45(65-7)53(69-11)55(71-13)49(37)39(57)27-35-29-41(61-3)51(67-9)42(30-35)62-4)21-15-25-73-47(59)17-18-48(60)74-26-16-22-58(2)24-20-38-34-46(66-8)54(70-12)56(72-14)50(38)40(58)28-36-31-43(63-5)52(68-10)44(32-36)64-6/h29-34,39-40H,15-28H2,1-14H3/q+2

> <INCHI_KEY>
InChIKey=GBLRQXKSCRCLBZ-UHFFFAOYSA-N

> <SMILES>
COC1=CC(CC2C3=C(CC[N+]2(C)CCCOC(=O)CCC(=O)OCCC[N+]2(C)CCC4=C(C2CC2=CC(OC)=C(OC)C(OC)=C2)C(OC)=C(OC)C(OC)=C4)C=C(OC)C(OC)=C3OC)=CC(OC)=C1OC

> <JCHEM_ACCEPTOR_COUNT>
14

> <JCHEM_DONOR_COUNT>
0

> <JCHEM_ACIDIC_PKA>
18.41

> <JCHEM_BASIC_PKA>
-4.1

> <JCHEM_PHYSIOLOGICAL_CHARGE>
2

> <ALOGPS_LOGP>
3.44

> <JCHEM_LOGP>
-2.5

> <ALOGPS_LOGS>
-7.1

> <JCHEM_POLARIZABILITY>
113.06

> <JCHEM_POLAR_SURFACE_AREA>
163.36

> <JCHEM_REFRACTIVITY>
302.15

> <JCHEM_ROTATABLE_BOND_COUNT>
29

> <ALOGPS_SOLUBILITY>
9.02e-05 g/l __ 

$$$$
