
  Mrv0541 02231215472D          

 30 32  0  0  1  0            999 V2000
   -3.2056    4.3648    0.0000 N   0  0  0  0  0  0  0  0  0  0  0  0
   -2.3986    4.5363    0.0000 C   0  0  0  0  0  0  0  0  0  0  0  0
   -2.1437    5.3209    0.0000 N   0  0  0  0  0  0  0  0  0  0  0  0
   -1.3367    5.4924    0.0000 C   0  0  0  0  0  0  0  0  0  0  0  0
   -0.7847    4.8794    0.0000 N   0  0  0  0  0  0  0  0  0  0  0  0
   -1.0396    4.0947    0.0000 C   0  0  0  0  0  0  0  0  0  0  0  0
   -1.8466    3.9232    0.0000 C   0  0  0  0  0  0  0  0  0  0  0  0
   -1.9328    3.1027    0.0000 N   0  0  0  0  0  0  0  0  0  0  0  0
   -1.1791    2.7672    0.0000 C   0  0  0  0  0  0  0  0  0  0  0  0
   -0.6271    3.3803    0.0000 N   0  0  0  0  0  0  0  0  0  0  0  0
    0.1934    3.2940    0.0000 C   0  0  1  0  0  0  0  0  0  0  0  0
    0.7454    3.9071    0.0000 O   0  0  0  0  0  0  0  0  0  0  0  0
    1.4991    3.5716    0.0000 C   0  0  2  0  0  0  0  0  0  0  0  0
    2.2136    3.9841    0.0000 C   0  0  0  0  0  0  0  0  0  0  0  0
    2.9280    3.5716    0.0000 O   0  0  0  0  0  0  0  0  0  0  0  0
    3.6425    3.9841    0.0000 P   0  0  1  0  0  0  0  0  0  0  0  0
    4.0550    3.2696    0.0000 O   0  0  0  0  0  0  0  0  0  0  0  0
    3.2300    4.6985    0.0000 O   0  0  0  0  0  0  0  0  0  0  0  0
    4.3570    4.3966    0.0000 O   0  0  0  0  0  0  0  0  0  0  0  0
    5.0714    3.9841    0.0000 P   0  0  2  0  0  0  0  0  0  0  0  0
    4.6589    3.2696    0.0000 O   0  0  0  0  0  0  0  0  0  0  0  0
    5.4839    4.6985    0.0000 O   0  0  0  0  0  0  0  0  0  0  0  0
    5.7859    3.5716    0.0000 O   0  0  0  0  0  0  0  0  0  0  0  0
    6.5004    3.9841    0.0000 P   0  0  0  0  0  0  0  0  0  0  0  0
    7.2149    4.3966    0.0000 O   0  0  0  0  0  0  0  0  0  0  0  0
    6.9129    3.2696    0.0000 O   0  0  0  0  0  0  0  0  0  0  0  0
    6.0879    4.6985    0.0000 O   0  0  0  0  0  0  0  0  0  0  0  0
    1.4129    2.7511    0.0000 C   0  0  0  0  0  0  0  0  0  0  0  0
    0.6059    2.5796    0.0000 C   0  0  2  0  0  0  0  0  0  0  0  0
    0.2703    1.8259    0.0000 O   0  0  0  0  0  0  0  0  0  0  0  0
  1  2  1  0  0  0  0
  2  3  2  0  0  0  0
  3  4  1  0  0  0  0
  4  5  2  0  0  0  0
  5  6  1  0  0  0  0
  6  7  2  0  0  0  0
  2  7  1  0  0  0  0
  7  8  1  0  0  0  0
  8  9  2  0  0  0  0
  9 10  1  0  0  0  0
  6 10  1  0  0  0  0
 11 10  1  1  0  0  0
 11 12  1  0  0  0  0
 12 13  1  0  0  0  0
 13 14  1  6  0  0  0
 14 15  1  0  0  0  0
 16 15  1  1  0  0  0
 16 17  1  6  0  0  0
 16 18  2  0  0  0  0
 16 19  1  0  0  0  0
 20 19  1  6  0  0  0
 20 21  1  1  0  0  0
 20 22  2  0  0  0  0
 20 23  1  0  0  0  0
 23 24  1  0  0  0  0
 24 25  1  0  0  0  0
 24 26  1  0  0  0  0
 24 27  2  0  0  0  0
 13 28  1  0  0  0  0
 28 29  1  0  0  0  0
 11 29  1  0  0  0  0
 29 30  1  6  0  0  0
M  END
> <DRUGBANK_ID>
DB01860

> <DRUG_GROUPS>
experimental

> <GENERIC_NAME>
Cordycepin Triphosphate

> <CHEMICAL_FORMULA>
C10H16N5O12P3

> <MOLECULAR_WEIGHT>
491.1816

> <EXACT_MASS>
491.000830537

> <IUPAC_NAME>
({[({[(2S,4S,5S)-5-(6-amino-9H-purin-9-yl)-4-hydroxyoxolan-2-yl]methoxy}(hydroxy)phosphoryl)oxy](hydroxy)phosphoryl}oxy)phosphonic acid

> <IUPAC_TRADITIONAL_NAME>
({[(2S,4S,5S)-5-(6-aminopurin-9-yl)-4-hydroxyoxolan-2-yl]methoxy(hydroxy)phosphoryl}oxy(hydroxy)phosphoryl)oxyphosphonic acid

> <INCHI_IDENTIFIER>
InChI=1S/C10H16N5O12P3/c11-8-7-9(13-3-12-8)15(4-14-7)10-6(16)1-5(25-10)2-24-29(20,21)27-30(22,23)26-28(17,18)19/h3-6,10,16H,1-2H2,(H,20,21)(H,22,23)(H2,11,12,13)(H2,17,18,19)/t5-,6-,10-/m0/s1

> <INCHI_KEY>
InChIKey=NLIHPCYXRYQPSD-VGIXGZPDSA-N

> <SMILES>
NC1=NC=NC2=C1N=CN2[C@H]1O[C@H](CO[P@@](O)(=O)O[P@](O)(=O)OP(O)(O)=O)C[C@@H]1O

> <JCHEM_ACCEPTOR_COUNT>
13

> <JCHEM_DONOR_COUNT>
6

> <JCHEM_ACIDIC_PKA>
0.9

> <JCHEM_BASIC_PKA>
5

> <JCHEM_PHYSIOLOGICAL_CHARGE>
-3

> <ALOGPS_LOGP>
-0.68

> <JCHEM_LOGP>
-5.5

> <ALOGPS_LOGS>
-2.1

> <JCHEM_POLARIZABILITY>
37.54

> <JCHEM_POLAR_SURFACE_AREA>
258.9

> <JCHEM_REFRACTIVITY>
94.72

> <JCHEM_ROTATABLE_BOND_COUNT>
8

> <ALOGPS_SOLUBILITY>
3.83e+00 g/l __ 

$$$$
