
  Mrv0541 02231215462D          

 66 74  0  0  1  0            999 V2000
  -17.0580   -8.9544    0.0000 C    0  0  0  0  0  0  0  0  0  0  0  0
  -16.2733   -9.2093    0.0000 C    0  0  0  0  0  0  0  0  0  0  0  0
  -15.6602   -8.6573    0.0000 C    0  0  1  0  0  0  0  0  0  0  0  0
  -15.7465   -7.8368    0.0000 C    0  0  2  0  0  0  0  0  0  0  0  0
  -16.4609   -7.4243    0.0000 C    0  0  0  0  0  0  0  0  0  0  0  0
  -14.9928   -7.5012    0.0000 C    0  0  0  0  0  0  0  0  0  0  0  0
  -14.6383   -6.4893    0.0000 C    0  0  0  0  0  0  0  0  0  0  0  0
  -14.0040   -5.9617    0.0000 C    0  0  0  0  0  0  0  0  0  0  0  0
  -13.8325   -5.1547    0.0000 C    0  0  0  0  0  0  0  0  0  0  0  0
  -14.3845   -4.5416    0.0000 C    0  0  0  0  0  0  0  0  0  0  0  0
  -14.1296   -3.7570    0.0000 C    0  0  0  0  0  0  0  0  0  0  0  0
  -15.1915   -4.7132    0.0000 O    0  0  0  0  0  0  0  0  0  0  0  0
  -13.0120   -5.0685    0.0000 C    0  0  0  0  0  0  0  0  0  0  0  0
  -12.5995   -4.3540    0.0000 C    0  0  0  0  0  0  0  0  0  0  0  0
  -12.6764   -5.8222    0.0000 C    0  0  0  0  0  0  0  0  0  0  0  0
  -11.6645   -6.1767    0.0000 C    0  0  0  0  0  0  0  0  0  0  0  0
  -11.1369   -6.8110    0.0000 C    0  0  0  0  0  0  0  0  0  0  0  0
  -10.3299   -6.9825    0.0000 C    0  0  1  0  0  0  0  0  0  0  0  0
   -9.7168   -6.4305    0.0000 C    0  0  0  0  0  0  0  0  0  0  0  0
  -10.2437   -7.8030    0.0000 C    0  0  2  0  0  0  0  0  0  0  0  0
   -9.5292   -8.2155    0.0000 C    0  0  0  0  0  0  0  0  0  0  0  0
   -8.8148   -7.8030    0.0000 C    0  0  0  0  0  0  0  0  0  0  0  0
   -8.1003   -8.2155    0.0000 C    0  0  0  0  0  0  0  0  0  0  0  0
   -8.1003   -9.0405    0.0000 O    0  0  0  0  0  0  0  0  0  0  0  0
   -7.3858   -7.8030    0.0000 O    0  0  0  0  0  0  0  0  0  0  0  0
   -6.6714   -8.2155    0.0000 C    0  0  0  0  0  0  0  0  0  0  0  0
   -5.9569   -7.8030    0.0000 C    0  0  0  0  0  0  0  0  0  0  0  0
   -5.2424   -8.2155    0.0000 C    0  0  0  0  0  0  0  0  0  0  0  0
   -5.2424   -9.0405    0.0000 C    0  0  0  0  0  0  0  0  0  0  0  0
   -4.5279   -7.8030    0.0000 C    0  0  0  0  0  0  0  0  0  0  0  0
   -3.8135   -8.2155    0.0000 C    0  0  0  0  0  0  0  0  0  0  0  0
   -3.0990   -7.8030    0.0000 C    0  0  0  0  0  0  0  0  0  0  0  0
   -2.3845   -8.2155    0.0000 C    0  0  2  0  0  0  0  0  0  0  0  0
   -2.3845   -9.0405    0.0000 C    0  0  0  0  0  0  0  0  0  0  0  0
   -1.6701   -7.8030    0.0000 C    0  0  0  0  0  0  0  0  0  0  0  0
   -0.9556   -8.2155    0.0000 C    0  0  0  0  0  0  0  0  0  0  0  0
   -0.2411   -7.8030    0.0000 C    0  0  0  0  0  0  0  0  0  0  0  0
    0.4734   -8.2155    0.0000 C    0  0  2  0  0  0  0  0  0  0  0  0
    0.4734   -9.0405    0.0000 C    0  0  0  0  0  0  0  0  0  0  0  0
    1.1878   -7.8030    0.0000 C    0  0  0  0  0  0  0  0  0  0  0  0
    1.9023   -8.2155    0.0000 C    0  0  0  0  0  0  0  0  0  0  0  0
    2.6168   -7.8030    0.0000 C    0  0  0  0  0  0  0  0  0  0  0  0
    3.3312   -8.2155    0.0000 C    0  0  0  0  0  0  0  0  0  0  0  0
    4.0457   -7.8030    0.0000 C    0  0  0  0  0  0  0  0  0  0  0  0
    3.3312   -9.0405    0.0000 C    0  0  0  0  0  0  0  0  0  0  0  0
  -10.9974   -8.1385    0.0000 C    0  0  0  0  0  0  0  0  0  0  0  0
  -11.5494   -7.5255    0.0000 N    0  3  0  0  0  0  0  0  0  0  0  0
  -13.0502   -7.7860    0.0000 Mg   0  0  0  0  0  0  0  0  0  0  0  0
  -13.2895   -6.3742    0.0000 N    0  0  0  0  0  0  0  0  0  0  0  0
  -12.9210   -9.1300    0.0000 N    0  0  0  0  0  0  0  0  0  0  0  0
  -13.4146   -9.7910    0.0000 C    0  0  0  0  0  0  0  0  0  0  0  0
  -14.3257   -9.4631    0.0000 C    0  0  0  0  0  0  0  0  0  0  0  0
  -14.8533   -8.8288    0.0000 C    0  0  0  0  0  0  0  0  0  0  0  0
  -14.4408   -8.1143    0.0000 N    0  3  0  0  0  0  0  0  0  0  0  0
  -12.9385  -10.4648    0.0000 C    0  0  0  0  0  0  0  0  0  0  0  0
  -13.2037  -11.2460    0.0000 C    0  0  0  0  0  0  0  0  0  0  0  0
  -12.1506  -10.2201    0.0000 C    0  0  0  0  0  0  0  0  0  0  0  0
  -11.3694  -10.4853    0.0000 C    0  0  0  0  0  0  0  0  0  0  0  0
  -11.1247  -11.2732    0.0000 O    0  0  0  0  0  0  0  0  0  0  0  0
  -10.8757   -9.8243    0.0000 C    0  0  1  0  0  0  0  0  0  0  0  0
  -10.0508   -9.8351    0.0000 C    0  0  0  0  0  0  0  0  0  0  0  0
   -9.6477  -10.5549    0.0000 O    0  0  0  0  0  0  0  0  0  0  0  0
   -9.6290   -9.1260    0.0000 O    0  0  0  0  0  0  0  0  0  0  0  0
   -8.8041   -9.1368    0.0000 C    0  0  0  0  0  0  0  0  0  0  0  0
  -11.3519   -9.1505    0.0000 C    0  0  0  0  0  0  0  0  0  0  0  0
  -12.1398   -9.3952    0.0000 C    0  0  0  0  0  0  0  0  0  0  0  0
  1  2  1  0  0  0  0
  3  2  1  1  0  0  0
  3  4  1  0  0  0  0
  4  5  1  6  0  0  0
  4  6  1  0  0  0  0
  6  7  2  0  0  0  0
  7  8  1  0  0  0  0
  8  9  2  0  0  0  0
  9 10  1  0  0  0  0
 10 11  1  0  0  0  0
 10 12  2  0  0  0  0
  9 13  1  0  0  0  0
 13 14  1  0  0  0  0
 13 15  2  0  0  0  0
 15 16  1  0  0  0  0
 16 17  2  0  0  0  0
 17 18  1  0  0  0  0
 18 19  1  1  0  0  0
 18 20  1  0  0  0  0
 20 21  1  6  0  0  0
 21 22  1  0  0  0  0
 22 23  1  0  0  0  0
 23 24  2  0  0  0  0
 23 25  1  0  0  0  0
 25 26  1  0  0  0  0
 26 27  1  0  0  0  0
 27 28  2  0  0  0  0
 28 29  1  0  0  0  0
 28 30  1  0  0  0  0
 30 31  1  0  0  0  0
 31 32  1  0  0  0  0
 32 33  1  0  0  0  0
 33 34  1  1  0  0  0
 33 35  1  0  0  0  0
 35 36  1  0  0  0  0
 36 37  1  0  0  0  0
 37 38  1  0  0  0  0
 38 39  1  1  0  0  0
 38 40  1  0  0  0  0
 40 41  1  0  0  0  0
 41 42  1  0  0  0  0
 42 43  1  0  0  0  0
 43 44  1  0  0  0  0
 43 45  1  0  0  0  0
 20 46  1  0  0  0  0
 46 47  2  0  0  0  0
 17 47  1  0  0  0  0
 47 48  1  0  0  0  0
 48 49  1  0  0  0  0
  8 49  1  0  0  0  0
 15 49  1  0  0  0  0
 48 50  1  0  0  0  0
 50 51  1  0  0  0  0
 51 52  2  0  0  0  0
 52 53  1  0  0  0  0
  3 53  1  0  0  0  0
 53 54  2  0  0  0  0
  6 54  1  0  0  0  0
 48 54  1  0  0  0  0
 51 55  1  0  0  0  0
 55 56  1  0  0  0  0
 55 57  2  0  0  0  0
 57 58  1  0  0  0  0
 58 59  2  0  0  0  0
 58 60  1  0  0  0  0
 60 61  1  6  0  0  0
 61 62  2  0  0  0  0
 61 63  1  0  0  0  0
 63 64  1  0  0  0  0
 60 65  1  0  0  0  0
 46 65  1  0  0  0  0
 65 66  2  0  0  0  0
 50 66  1  0  0  0  0
 57 66  1  0  0  0  0
M  END
> <DRUGBANK_ID>
DB01853

> <DRUG_GROUPS>
experimental

> <GENERIC_NAME>
Bacteriochlorophyll A

> <CHEMICAL_FORMULA>
C55H74MgN4O6

> <MOLECULAR_WEIGHT>
911.504

> <EXACT_MASS>
910.545878018

> <IUPAC_NAME>
(5S,12S,13S,22S,23S)-17-acetyl-12-ethyl-5-(methoxycarbonyl)-8,13,18,22-tetramethyl-6-oxo-23-(3-oxo-3-{[(2E,7R,11R)-3,7,11,15-tetramethylhexadec-2-en-1-yl]oxy}propyl)-2,25$l^{5},26$l^{5},27-tetraaza-1-magnesanonacyclo[12.11.1.1^{1,16}.0^{2,9}.0^{3,7}.0^{4,24}.0^{11,26}.0^{21,25}.0^{19,27}]heptacosa-3,7,9,11(26),14,16,18,20,24-nonaene-25,26-bis(ylium)

> <IUPAC_TRADITIONAL_NAME>
bacteriochlorophyll A

> <INCHI_IDENTIFIER>
InChI=1S/C55H75N4O6.Mg/c1-13-39-34(7)41-29-46-48(38(11)60)36(9)43(57-46)27-42-35(8)40(52(58-42)50-51(55(63)64-12)54(62)49-37(10)44(59-53(49)50)28-45(39)56-41)23-24-47(61)65-26-25-33(6)22-16-21-32(5)20-15-19-31(4)18-14-17-30(2)3;/h25,27-32,34-35,39-40,51H,13-24,26H2,1-12H3,(H-,56,57,58,59,60,62);/q-1;+4/p-1/b33-25+;/t31-,32-,34+,35+,39+,40+,51+;/m1./s1

> <INCHI_KEY>
InChIKey=ZSERVQBSOBTXFV-DHHJBRQQSA-M

> <SMILES>
CC[C@H]1[C@H](C)C2=CC3=C(C(C)=O)C(C)=C4C=C5[C@@H](C)[C@H](CCC(=O)OC\C=C(/C)CCC[C@H](C)CCC[C@H](C)CCCC(C)C)C6=[N+]5[Mg]5([N+]2=C1C=C1C(C)=C2C(=O)[C@@H](C(=O)OC)C6=C2N51)N34

> <JCHEM_ACCEPTOR_COUNT>
4

> <JCHEM_DONOR_COUNT>
0

> <JCHEM_ACIDIC_PKA>
4.19

> <JCHEM_BASIC_PKA>
-6.7

> <JCHEM_PHYSIOLOGICAL_CHARGE>
1

> <ALOGPS_LOGP>
3.45

> <JCHEM_LOGP>
2.78

> <ALOGPS_LOGS>
-7.5

> <JCHEM_POLARIZABILITY>
110.77

> <JCHEM_POLAR_SURFACE_AREA>
104.36

> <JCHEM_REFRACTIVITY>
266.36

> <JCHEM_ROTATABLE_BOND_COUNT>
22

> <ALOGPS_SOLUBILITY>
2.84e-05 g/l __ 

$$$$
