DHY
  Mrv0541 02231215392D          

 12 12  0  0  0  0            999 V2000
    0.4407   -0.0529    0.0000 C   0  0  0  0  0  0  0  0  0  0  0  0
    0.4407   -0.8779    0.0000 C   0  0  0  0  0  0  0  0  0  0  0  0
   -0.2737   -1.2904    0.0000 C   0  0  0  0  0  0  0  0  0  0  0  0
   -0.9882   -0.8779    0.0000 C   0  0  0  0  0  0  0  0  0  0  0  0
   -0.9882   -0.0529    0.0000 C   0  0  0  0  0  0  0  0  0  0  0  0
   -0.2737    0.3596    0.0000 C   0  0  0  0  0  0  0  0  0  0  0  0
    1.1552    0.3596    0.0000 C   0  0  0  0  0  0  0  0  0  0  0  0
    1.1552    1.1846    0.0000 C   0  0  0  0  0  0  0  0  0  0  0  0
    1.8697    1.5971    0.0000 O   0  0  0  0  0  0  0  0  0  0  0  0
    0.4407    1.5971    0.0000 O   0  0  0  0  0  0  0  0  0  0  0  0
   -0.2737   -2.1154    0.0000 O   0  0  0  0  0  0  0  0  0  0  0  0
   -1.7027   -1.2904    0.0000 O   0  0  0  0  0  0  0  0  0  0  0  0
  1  2  2  0  0  0  0
  1  6  1  0  0  0  0
  1  7  1  0  0  0  0
  2  3  1  0  0  0  0
  3  4  2  0  0  0  0
  3 11  1  0  0  0  0
  4  5  1  0  0  0  0
  4 12  1  0  0  0  0
  5  6  2  0  0  0  0
  7  8  1  0  0  0  0
  8  9  2  0  0  0  0
  8 10  1  0  0  0  0
M  END
> <DRUGBANK_ID>
DB01702

> <DRUG_GROUPS>
experimental

> <GENERIC_NAME>
2-(3,4-Dihydroxyphenyl)Acetic Acid

> <CHEMICAL_FORMULA>
C8H8O4

> <MOLECULAR_WEIGHT>
168.1467

> <EXACT_MASS>
168.042258744

> <IUPAC_NAME>
2-(3,4-dihydroxyphenyl)acetic acid

> <IUPAC_TRADITIONAL_NAME>
dopac

> <INCHI_IDENTIFIER>
InChI=1S/C8H8O4/c9-6-2-1-5(3-7(6)10)4-8(11)12/h1-3,9-10H,4H2,(H,11,12)

> <INCHI_KEY>
InChIKey=CFFZDZCDUFSOFZ-UHFFFAOYSA-N

> <SMILES>
OC(=O)CC1=CC(O)=C(O)C=C1

> <JCHEM_ACCEPTOR_COUNT>
4

> <JCHEM_DONOR_COUNT>
3

> <JCHEM_ACIDIC_PKA>
3.61

> <JCHEM_BASIC_PKA>
-6.3

> <JCHEM_PHYSIOLOGICAL_CHARGE>
-1

> <ALOGPS_LOGP>
0.93

> <JCHEM_LOGP>
1

> <ALOGPS_LOGS>
-1.4

> <JCHEM_POLARIZABILITY>
15.71

> <JCHEM_POLAR_SURFACE_AREA>
77.76

> <JCHEM_REFRACTIVITY>
41.33

> <JCHEM_ROTATABLE_BOND_COUNT>
2

> <ALOGPS_SOLUBILITY>
7.23e+00 g/l __ 

$$$$
