
  Mrv0541 04191212172D          

 29 31  0  0  1  0            999 V2000
   -1.3595    1.7519    0.0000 C   0  0  0  0  0  0  0  0  0  0  0  0
   -0.7145    1.2375    0.0000 C   0  0  0  0  0  0  0  0  0  0  0  0
   -0.7145    0.4125    0.0000 C   0  0  0  0  0  0  0  0  0  0  0  0
   -2.1638    1.5683    0.0000 C   0  0  0  0  0  0  0  0  0  0  0  0
   -2.1638    0.0817    0.0000 C   0  0  0  0  0  0  0  0  0  0  0  0
   -2.5218    0.8250    0.0000 C   0  0  0  0  0  0  0  0  0  0  0  0
    0.0000    0.0000    0.0000 C   0  0  0  0  0  0  0  0  0  0  0  0
    0.7145    0.4125    0.0000 C   0  0  0  0  0  0  0  0  0  0  0  0
    0.7145    1.2375    0.0000 C   0  0  0  0  0  0  0  0  0  0  0  0
    0.0000    1.6500    0.0000 C   0  0  0  0  0  0  0  0  0  0  0  0
    0.0000   -0.8250    0.0000 O   0  0  0  0  0  0  0  0  0  0  0  0
    1.4289    0.0000    0.0000 O   0  0  0  0  0  0  0  0  0  0  0  0
    1.4289    1.6500    0.0000 O   0  0  0  0  0  0  0  0  0  0  0  0
   -1.3595   -0.1019    0.0000 C   0  0  0  0  0  0  0  0  0  0  0  0
   -1.0015   -0.8452    0.0000 C   0  0  0  0  0  0  0  0  0  0  0  0
   -1.3595   -1.5885    0.0000 C   0  0  0  0  0  0  0  0  0  0  0  0
   -2.1638   -1.7721    0.0000 C   0  0  0  0  0  0  0  0  0  0  0  0
   -2.8088   -1.2577    0.0000 C   0  0  0  0  0  0  0  0  0  0  0  0
   -2.8088   -0.4327    0.0000 C   0  0  0  0  0  0  0  0  0  0  0  0
    1.4289    2.4750    0.0000 C   0  0  0  0  0  0  0  0  0  0  0  0
    2.1434    0.4125    0.0000 C   0  0  0  0  0  0  0  0  0  0  0  0
    0.7145   -1.2375    0.0000 C   0  0  0  0  0  0  0  0  0  0  0  0
   -3.5521   -1.6156    0.0000 O   0  0  0  0  0  0  0  0  0  0  0  0
   -2.3474   -2.5764    0.0000 O   0  0  0  0  0  0  0  0  0  0  0  0
   -1.7426   -3.1375    0.0000 C   0  0  0  0  0  0  0  0  0  0  0  0
   -3.3468    0.8250    0.0000 N   0  0  0  0  0  0  0  0  0  0  0  0
   -3.7593    1.5395    0.0000 C   0  0  0  0  0  0  0  0  0  0  0  0
   -3.3468    2.2539    0.0000 C   0  0  0  0  0  0  0  0  0  0  0  0
   -4.5843    1.5395    0.0000 O   0  0  0  0  0  0  0  0  0  0  0  0
  1  4  1  0  0  0  0
  2  3  2  0  0  0  0
  4  6  1  0  0  0  0
  1  2  1  0  0  0  0
  5  6  1  0  0  0  0
  3  7  1  0  0  0  0
  7  8  2  0  0  0  0
  8  9  1  0  0  0  0
  9 10  2  0  0  0  0
  2 10  1  0  0  0  0
  7 11  1  0  0  0  0
  8 12  1  0  0  0  0
  9 13  1  0  0  0  0
 16 17  2  0  0  0  0
 17 18  1  0  0  0  0
 15 16  1  0  0  0  0
  5 19  2  0  0  0  0
 14 15  2  0  0  0  0
 18 19  1  0  0  0  0
  3 14  1  0  0  0  0
 14  5  1  0  0  0  0
 13 20  1  0  0  0  0
 12 21  1  0  0  0  0
 11 22  1  0  0  0  0
 18 23  2  0  0  0  0
 17 24  1  0  0  0  0
 24 25  1  0  0  0  0
  6 26  1  0  0  0  0
 26 27  1  0  0  0  0
 27 28  1  0  0  0  0
 27 29  2  0  0  0  0
M  END
> <DRUGBANK_ID>
DB01394

> <DRUG_GROUPS>
approved

> <GENERIC_NAME>
Colchicine

> <SYNONYMS>


> <BRANDS>


> <CHEMICAL_FORMULA>
C22H25NO6

> <MOLECULAR_WEIGHT>
399.437

> <EXACT_MASS>
399.168187537

> <IUPAC_NAME>
N-{3,4,5,14-tetramethoxy-13-oxotricyclo[9.5.0.0^{2,7}]hexadeca-1(16),2(7),3,5,11,14-hexaen-10-yl}acetamide

> <IUPAC_TRADITIONAL_NAME>
colchicine

> <INCHI_IDENTIFIER>
InChI=1S/C22H25NO6/c1-12(24)23-16-8-6-13-10-19(27-3)21(28-4)22(29-5)20(13)14-7-9-18(26-2)17(25)11-15(14)16/h7,9-11,16H,6,8H2,1-5H3,(H,23,24)

> <INCHI_KEY>
InChIKey=IAKHMKGGTNLKSZ-UHFFFAOYSA-N

> <SMILES>
COC1=CC2=C(C(OC)=C1OC)C1=CC=C(OC)C(=O)C=C1C(CC2)NC(C)=O

> <JCHEM_ACCEPTOR_COUNT>
6

> <JCHEM_DONOR_COUNT>
1

> <JCHEM_ACIDIC_PKA>
15.06

> <JCHEM_BASIC_PKA>
-0.038

> <JCHEM_PHYSIOLOGICAL_CHARGE>
0

> <ALOGPS_LOGP>
1.59

> <JCHEM_LOGP>
1.46

> <ALOGPS_LOGS>
-4.2

> <JCHEM_POLARIZABILITY>
42.41

> <JCHEM_POLAR_SURFACE_AREA>
83.09

> <JCHEM_REFRACTIVITY>
111.38

> <JCHEM_ROTATABLE_BOND_COUNT>
5

> <ALOGPS_SOLUBILITY>
2.76e-02 g/l __ 

$$$$
