
  Mrv0541 02231215512D          

  7  6  0  0  0  0            999 V2000
    0.1105   -2.0625    0.0000 N   0  0  0  0  0  0  0  0  0  0  0  0
    0.1105   -1.2375    0.0000 C   0  0  0  0  0  0  0  0  0  0  0  0
    0.8250   -0.8250    0.0000 C   0  0  0  0  0  0  0  0  0  0  0  0
    0.8250    0.0000    0.0000 S   0  0  0  0  0  0  0  0  0  0  0  0
    0.8250    0.8250    0.0000 O   0  0  0  0  0  0  0  0  0  0  0  0
    1.6500    0.0000    0.0000 O   0  0  0  0  0  0  0  0  0  0  0  0
    0.0000    0.0000    0.0000 O   0  0  0  0  0  0  0  0  0  0  0  0
  1  2  1  0  0  0  0
  2  3  1  0  0  0  0
  3  4  1  0  0  0  0
  4  5  1  0  0  0  0
  4  6  2  0  0  0  0
  4  7  2  0  0  0  0
M  END
> <DRUGBANK_ID>
DB01956

> <DRUG_GROUPS>
experimental

> <GENERIC_NAME>
2-Aminoethanesulfonic Acid

> <CHEMICAL_FORMULA>
C2H7NO3S

> <MOLECULAR_WEIGHT>
125.147

> <EXACT_MASS>
125.014663785

> <IUPAC_NAME>
2-aminoethane-1-sulfonic acid

> <IUPAC_TRADITIONAL_NAME>
taurine

> <INCHI_IDENTIFIER>
InChI=1S/C2H7NO3S/c3-1-2-7(4,5)6/h1-3H2,(H,4,5,6)

> <INCHI_KEY>
InChIKey=XOAAWQZATWQOTB-UHFFFAOYSA-N

> <SMILES>
NCCS(O)(=O)=O

> <JCHEM_ACCEPTOR_COUNT>
4

> <JCHEM_DONOR_COUNT>
2

> <JCHEM_ACIDIC_PKA>
-1.5

> <JCHEM_BASIC_PKA>
9.34

> <JCHEM_PHYSIOLOGICAL_CHARGE>
0

> <ALOGPS_LOGP>
-2.2

> <JCHEM_LOGP>
-2.6

> <ALOGPS_LOGS>
-0.08

> <JCHEM_POLARIZABILITY>
10.82

> <JCHEM_POLAR_SURFACE_AREA>
80.39

> <JCHEM_REFRACTIVITY>
24.61

> <JCHEM_ROTATABLE_BOND_COUNT>
2

> <ALOGPS_SOLUBILITY>
1.05e+02 g/l __ 

$$$$
