1068
  Mrv0541 02231215132D          

 22 24  0  0  0  0            999 V2000
    3.6081   -1.2313    0.0000 Cl   0  0  0  0  0  0  0  0  0  0  0  0
    2.3403    2.5929    0.0000 O    0  0  0  0  0  0  0  0  0  0  0  0
    1.8668   -2.5929    0.0000 O    0  5  0  0  0  0  0  0  0  0  0  0
    3.2913   -2.4806    0.0000 O    0  0  0  0  0  0  0  0  0  0  0  0
    2.1839    1.2046    0.0000 N    0  0  0  0  0  0  0  0  0  0  0  0
    4.0375    1.2046    0.0000 N    0  0  0  0  0  0  0  0  0  0  0  0
    2.5467   -2.1255    0.0000 N    0  3  0  0  0  0  0  0  0  0  0  0
    3.1107    0.0423    0.0000 C    0  0  0  0  0  0  0  0  0  0  0  0
    2.3674    0.4003    0.0000 C    0  0  0  0  0  0  0  0  0  0  0  0
    3.8540    0.4003    0.0000 C    0  0  0  0  0  0  0  0  0  0  0  0
    4.4990   -0.1141    0.0000 C    0  0  0  0  0  0  0  0  0  0  0  0
    3.1881   -0.8135    0.0000 C    0  0  0  0  0  0  0  0  0  0  0  0
    1.6500   -0.0728    0.0000 C    0  0  0  0  0  0  0  0  0  0  0  0
    3.5232    1.8496    0.0000 C    0  0  0  0  0  0  0  0  0  0  0  0
    2.4818   -1.3031    0.0000 C    0  0  0  0  0  0  0  0  0  0  0  0
    2.6982    1.8496    0.0000 C    0  0  0  0  0  0  0  0  0  0  0  0
    1.7076   -0.9302    0.0000 C    0  0  0  0  0  0  0  0  0  0  0  0
    4.3760   -0.9299    0.0000 C    0  0  0  0  0  0  0  0  0  0  0  0
    5.2670    0.1873    0.0000 C    0  0  0  0  0  0  0  0  0  0  0  0
    5.0210   -1.4442    0.0000 C    0  0  0  0  0  0  0  0  0  0  0  0
    5.9120   -0.3271    0.0000 C    0  0  0  0  0  0  0  0  0  0  0  0
    5.7890   -1.1429    0.0000 C    0  0  0  0  0  0  0  0  0  0  0  0
  1 18  1  0  0  0  0
  2 16  2  0  0  0  0
  3  7  1  0  0  0  0
  4  7  2  0  0  0  0
  5  9  1  0  0  0  0
  5 16  1  0  0  0  0
  6 10  2  0  0  0  0
  6 14  1  0  0  0  0
  7 15  1  0  0  0  0
  8  9  2  0  0  0  0
  8 10  1  0  0  0  0
  8 12  1  0  0  0  0
  9 13  1  0  0  0  0
 10 11  1  0  0  0  0
 11 18  1  0  0  0  0
 11 19  2  0  0  0  0
 12 15  2  0  0  0  0
 13 17  2  0  0  0  0
 14 16  1  0  0  0  0
 15 17  1  0  0  0  0
 18 20  2  0  0  0  0
 19 21  1  0  0  0  0
 20 22  1  0  0  0  0
 21 22  2  0  0  0  0
M  END
> <DRUGBANK_ID>
DB01068

> <DRUG_GROUPS>
approved; illicit

> <GENERIC_NAME>
Clonazepam

> <SYNONYMS>
Clonazepamum

> <BRANDS>
Antelepsin; Iktorivil; Klonopin; Klonopin Wafer; Rivotril

> <CHEMICAL_FORMULA>
C15H10ClN3O3

> <MOLECULAR_WEIGHT>
315.711

> <EXACT_MASS>
315.041068908

> <IUPAC_NAME>
5-(2-chlorophenyl)-7-nitro-2,3-dihydro-1H-1,4-benzodiazepin-2-one

> <IUPAC_TRADITIONAL_NAME>
clonazepam

> <INCHI_IDENTIFIER>
InChI=1S/C15H10ClN3O3/c16-12-4-2-1-3-10(12)15-11-7-9(19(21)22)5-6-13(11)18-14(20)8-17-15/h1-7H,8H2,(H,18,20)

> <INCHI_KEY>
InChIKey=DGBIGWXXNGSACT-UHFFFAOYSA-N

> <SMILES>
[O-][N+](=O)C1=CC2=C(NC(=O)CN=C2C2=CC=CC=C2Cl)C=C1

> <JCHEM_ACCEPTOR_COUNT>
4

> <JCHEM_DONOR_COUNT>
1

> <JCHEM_ACIDIC_PKA>
11.89

> <JCHEM_BASIC_PKA>
1.86

> <JCHEM_PHYSIOLOGICAL_CHARGE>
0

> <ALOGPS_LOGP>
2.76

> <JCHEM_LOGP>
3.15

> <ALOGPS_LOGS>
-4.5

> <JCHEM_POLARIZABILITY>
29.59

> <JCHEM_POLAR_SURFACE_AREA>
87.28

> <JCHEM_REFRACTIVITY>
84.02

> <JCHEM_ROTATABLE_BOND_COUNT>
2

> <ALOGPS_SOLUBILITY>
1.06e-02 g/l __ 

$$$$
