1187
  Mrv0541 02231215182D          

 22 22  0  0  1  0            999 V2000
    1.6500   -3.3001    0.0000 I   0  0  0  0  0  0  0  0  0  0  0  0
    6.6515    3.7126    0.0000 O   0  0  0  0  0  0  0  0  0  0  0  0
    7.3659    2.4751    0.0000 O   0  0  0  0  0  0  0  0  0  0  0  0
    3.7935   -1.2375    0.0000 C   0  0  0  0  0  0  0  0  0  0  0  0
    3.7935   -2.0625    0.0000 C   0  0  0  0  0  0  0  0  0  0  0  0
    4.5080   -0.8250    0.0000 C   0  0  0  0  0  0  0  0  0  0  0  0
    3.0791   -2.4751    0.0000 C   0  0  0  0  0  0  0  0  0  0  0  0
    4.5080    0.0000    0.0000 C   0  0  0  0  0  0  0  0  0  0  0  0
    5.2224    0.4125    0.0000 C   0  0  0  0  0  0  0  0  0  0  0  0
    5.2224    1.2375    0.0000 C   0  0  0  0  0  0  0  0  0  0  0  0
    3.0791   -3.3001    0.0000 C   0  0  0  0  0  0  0  0  0  0  0  0
    5.9370    1.6500    0.0000 C   0  0  0  0  0  0  0  0  0  0  0  0
    2.3645   -2.0625    0.0000 C   0  0  0  0  0  0  0  0  0  0  0  0
    5.9370    2.4751    0.0000 C   0  0  0  0  0  0  0  0  0  0  0  0
    2.3645   -3.7126    0.0000 C   0  0  0  0  0  0  0  0  0  0  0  0
    3.7935   -3.7126    0.0000 C   0  0  0  0  0  0  0  0  0  0  0  0
    2.3645   -4.5376    0.0000 C   0  0  0  0  0  0  0  0  0  0  0  0
    3.7935   -4.5376    0.0000 C   0  0  0  0  0  0  0  0  0  0  0  0
    6.6515    2.8876    0.0000 C   0  0  0  0  0  0  0  0  0  0  0  0
    3.0791   -4.9501    0.0000 C   0  0  0  0  0  0  0  0  0  0  0  0
    7.3659    4.1251    0.0000 C   0  0  0  0  0  0  0  0  0  0  0  0
    7.3659    4.9501    0.0000 C   0  0  0  0  0  0  0  0  0  0  0  0
  1 15  1  0  0  0  0
  2 19  1  0  0  0  0
  2 21  1  0  0  0  0
  3 19  2  0  0  0  0
  4  5  1  0  0  0  0
  4  6  1  0  0  0  0
  5  7  1  0  0  0  0
  6  8  1  0  0  0  0
  7 11  1  0  0  0  0
  7 13  1  0  0  0  0
  8  9  1  0  0  0  0
  9 10  1  0  0  0  0
 10 12  1  0  0  0  0
 11 15  1  0  0  0  0
 11 16  2  0  0  0  0
 12 14  1  0  0  0  0
 14 19  1  0  0  0  0
 15 17  2  0  0  0  0
 16 18  1  0  0  0  0
 17 20  1  0  0  0  0
 18 20  2  0  0  0  0
 21 22  1  0  0  0  0
M  END
> <DRUGBANK_ID>
DB01187

> <DRUG_GROUPS>
approved

> <GENERIC_NAME>
Iophendylate

> <BRANDS>


> <CHEMICAL_FORMULA>
C19H29IO2

> <MOLECULAR_WEIGHT>
416.3368

> <EXACT_MASS>
416.121223592

> <IUPAC_NAME>
ethyl 10-(2-iodophenyl)undecanoate

> <IUPAC_TRADITIONAL_NAME>
iofendylate

> <INCHI_IDENTIFIER>
InChI=1S/C19H29IO2/c1-3-22-19(21)15-9-7-5-4-6-8-12-16(2)17-13-10-11-14-18(17)20/h10-11,13-14,16H,3-9,12,15H2,1-2H3

> <INCHI_KEY>
InChIKey=IWRUDYQZPTVTPA-UHFFFAOYSA-N

> <SMILES>
CCOC(=O)CCCCCCCCC(C)C1=CC=CC=C1I

> <JCHEM_ACCEPTOR_COUNT>
1

> <JCHEM_DONOR_COUNT>
0

> <JCHEM_BASIC_PKA>
-7

> <JCHEM_PHYSIOLOGICAL_CHARGE>
0

> <ALOGPS_LOGP>
6.79

> <JCHEM_LOGP>
6.89

> <ALOGPS_LOGS>
-7.2

> <JCHEM_POLARIZABILITY>
41.29

> <JCHEM_POLAR_SURFACE_AREA>
26.3

> <JCHEM_REFRACTIVITY>
101.6

> <JCHEM_ROTATABLE_BOND_COUNT>
12

> <ALOGPS_SOLUBILITY>
2.52e-05 g/l __ 

$$$$
