
  Mrv0541 02231215492D          

  9  9  0  0  0  0            999 V2000
    2.1913    1.6913    0.0000 C   0  0  0  0  0  0  0  0  0  0  0  0
    2.0198    0.8843    0.0000 C   0  0  0  0  0  0  0  0  0  0  0  0
    1.2352    0.6294    0.0000 N   0  0  0  0  0  0  0  0  0  0  0  0
    0.9803   -0.1553    0.0000 C   0  0  0  0  0  0  0  0  0  0  0  0
    1.4652   -0.8227    0.0000 O   0  0  0  0  0  0  0  0  0  0  0  0
    0.1553   -0.1553    0.0000 C   0  0  0  0  0  0  0  0  0  0  0  0
   -0.0997    0.6294    0.0000 C   0  0  0  0  0  0  0  0  0  0  0  0
    0.5678    1.1143    0.0000 C   0  0  0  0  0  0  0  0  0  0  0  0
    0.5678    1.9393    0.0000 O   0  0  0  0  0  0  0  0  0  0  0  0
  1  2  1  0  0  0  0
  2  3  1  0  0  0  0
  3  4  1  0  0  0  0
  4  5  2  0  0  0  0
  4  6  1  0  0  0  0
  6  7  1  0  0  0  0
  7  8  1  0  0  0  0
  3  8  1  0  0  0  0
  8  9  2  0  0  0  0
M  END
> <DRUGBANK_ID>
DB01902

> <DRUG_GROUPS>
experimental

> <GENERIC_NAME>
1-Ethyl-Pyrrolidine-2,5-Dione

> <CHEMICAL_FORMULA>
C6H9NO2

> <MOLECULAR_WEIGHT>
127.1412

> <EXACT_MASS>
127.063328537

> <IUPAC_NAME>
1-ethylpyrrolidine-2,5-dione

> <IUPAC_TRADITIONAL_NAME>
N-ethylsuccinimide

> <INCHI_IDENTIFIER>
InChI=1S/C6H9NO2/c1-2-7-5(8)3-4-6(7)9/h2-4H2,1H3

> <INCHI_KEY>
InChIKey=GHAZCVNUKKZTLG-UHFFFAOYSA-N

> <SMILES>
CCN1C(=O)CCC1=O

> <JCHEM_ACCEPTOR_COUNT>
2

> <JCHEM_DONOR_COUNT>
0

> <JCHEM_BASIC_PKA>
-6.7

> <JCHEM_PHYSIOLOGICAL_CHARGE>
0

> <ALOGPS_LOGP>
-0.09

> <JCHEM_LOGP>
-0.41

> <ALOGPS_LOGS>
0.68

> <JCHEM_POLARIZABILITY>
12.71

> <JCHEM_POLAR_SURFACE_AREA>
37.38

> <JCHEM_REFRACTIVITY>
31.93

> <JCHEM_ROTATABLE_BOND_COUNT>
1

> <ALOGPS_SOLUBILITY>
6.15e+02 g/l __ 

$$$$
