
  Mrv0541 02231215532D          

 17 19  0  0  0  0            999 V2000
    5.5322   -2.2844    0.0000 O   0  0  0  0  0  0  0  0  0  0  0  0
    4.7252   -2.1129    0.0000 C   0  0  0  0  0  0  0  0  0  0  0  0
    4.4703   -1.3283    0.0000 C   0  0  0  0  0  0  0  0  0  0  0  0
    3.6633   -1.1567    0.0000 N   0  0  0  0  0  0  0  0  0  0  0  0
    3.4084   -0.3721    0.0000 C   0  0  0  0  0  0  0  0  0  0  0  0
    3.9604    0.2410    0.0000 N   0  0  0  0  0  0  0  0  0  0  0  0
    3.7054    1.0256    0.0000 C   0  0  0  0  0  0  0  0  0  0  0  0
    2.8985    1.1971    0.0000 N   0  0  0  0  0  0  0  0  0  0  0  0
    2.3464    0.5840    0.0000 C   0  0  0  0  0  0  0  0  0  0  0  0
    2.6014   -0.2006    0.0000 C   0  0  0  0  0  0  0  0  0  0  0  0
    1.9339   -0.6855    0.0000 N   0  0  0  0  0  0  0  0  0  0  0  0
    1.2665   -0.2006    0.0000 C   0  0  0  0  0  0  0  0  0  0  0  0
    0.4595   -0.3721    0.0000 C   0  0  0  0  0  0  0  0  0  0  0  0
   -0.0925    0.2410    0.0000 C   0  0  0  0  0  0  0  0  0  0  0  0
    0.1624    1.0256    0.0000 C   0  0  0  0  0  0  0  0  0  0  0  0
    0.9694    1.1971    0.0000 C   0  0  0  0  0  0  0  0  0  0  0  0
    1.5214    0.5840    0.0000 N   0  0  0  0  0  0  0  0  0  0  0  0
  1  2  1  0  0  0  0
  2  3  1  0  0  0  0
  3  4  1  0  0  0  0
  4  5  1  0  0  0  0
  5  6  2  0  0  0  0
  6  7  1  0  0  0  0
  7  8  2  0  0  0  0
  8  9  1  0  0  0  0
  9 10  2  0  0  0  0
  5 10  1  0  0  0  0
 10 11  1  0  0  0  0
 11 12  2  0  0  0  0
 12 13  1  0  0  0  0
 13 14  2  0  0  0  0
 14 15  1  0  0  0  0
 15 16  2  0  0  0  0
 16 17  1  0  0  0  0
  9 17  1  0  0  0  0
 12 17  1  0  0  0  0
M  END
> <DRUGBANK_ID>
DB01994

> <DRUG_GROUPS>
experimental

> <GENERIC_NAME>
2-(Pyrido[1,2-E]Purin-4-Yl)Amino-Ethanol

> <CHEMICAL_FORMULA>
C11H11N5O

> <MOLECULAR_WEIGHT>
229.2379

> <EXACT_MASS>
229.096359999

> <IUPAC_NAME>
2-({pyrido[2,1-h]purin-4-yl}amino)ethan-1-ol

> <IUPAC_TRADITIONAL_NAME>
2-{pyrido[2,1-h]purin-4-ylamino}ethanol

> <INCHI_IDENTIFIER>
InChI=1S/C11H11N5O/c17-6-4-12-10-9-11(14-7-13-10)16-5-2-1-3-8(16)15-9/h1-3,5,7,17H,4,6H2,(H,12,13,14)

> <INCHI_KEY>
InChIKey=QBILBVYKWQWDQJ-UHFFFAOYSA-N

> <SMILES>
OCCNC1=NC=NC2=C1N=C1C=CC=CN21

> <JCHEM_ACCEPTOR_COUNT>
5

> <JCHEM_DONOR_COUNT>
2

> <JCHEM_ACIDIC_PKA>
15.33

> <JCHEM_BASIC_PKA>
0.59

> <JCHEM_PHYSIOLOGICAL_CHARGE>
0

> <ALOGPS_LOGP>
0.85

> <JCHEM_LOGP>
-0.015

> <ALOGPS_LOGS>
-3.1

> <JCHEM_POLARIZABILITY>
23.92

> <JCHEM_POLAR_SURFACE_AREA>
75.34

> <JCHEM_REFRACTIVITY>
65.31

> <JCHEM_ROTATABLE_BOND_COUNT>
3

> <ALOGPS_SOLUBILITY>
1.99e-01 g/l __ 

$$$$
