1132
  Mrv0541 02231215162D          

 25 27  0  0  1  0            999 V2000
    6.6906    2.6473    0.0000 S   0  0  0  0  0  0  0  0  0  0  0  0
    5.2224   -0.7296    0.0000 O   0  0  0  0  0  0  0  0  0  0  0  0
    5.4100    4.3554    0.0000 O   0  0  0  0  0  0  0  0  0  0  0  0
    8.0631    3.1742    0.0000 O   0  0  0  0  0  0  0  0  0  0  0  0
    6.8301    3.9749    0.0000 N   0  0  0  0  0  0  0  0  0  0  0  0
    3.7935   -3.2047    0.0000 N   0  0  0  0  0  0  0  0  0  0  0  0
    5.9369    2.9829    0.0000 C   0  0  0  0  0  0  0  0  0  0  0  0
    5.2224    2.5704    0.0000 C   0  0  0  0  0  0  0  0  0  0  0  0
    5.2224    1.7454    0.0000 C   0  0  0  0  0  0  0  0  0  0  0  0
    6.0231    3.8034    0.0000 C   0  0  0  0  0  0  0  0  0  0  0  0
    5.9369    1.3329    0.0000 C   0  0  0  0  0  0  0  0  0  0  0  0
    4.5079    1.3329    0.0000 C   0  0  0  0  0  0  0  0  0  0  0  0
    4.5079   -1.9671    0.0000 C   0  0  0  0  0  0  0  0  0  0  0  0
    5.2224    0.0954    0.0000 C   0  0  0  0  0  0  0  0  0  0  0  0
    4.5079   -1.1421    0.0000 C   0  0  0  0  0  0  0  0  0  0  0  0
    5.9369    0.5079    0.0000 C   0  0  0  0  0  0  0  0  0  0  0  0
    4.5079    0.5079    0.0000 C   0  0  0  0  0  0  0  0  0  0  0  0
    3.7935   -2.3796    0.0000 C   0  0  0  0  0  0  0  0  0  0  0  0
    7.2426    3.2604    0.0000 C   0  0  0  0  0  0  0  0  0  0  0  0
    2.3645   -3.2047    0.0000 C   0  0  0  0  0  0  0  0  0  0  0  0
    3.0790   -1.9671    0.0000 C   0  0  0  0  0  0  0  0  0  0  0  0
    1.6500   -3.6172    0.0000 C   0  0  0  0  0  0  0  0  0  0  0  0
    2.3645   -2.3796    0.0000 C   0  0  0  0  0  0  0  0  0  0  0  0
    3.0790   -3.6172    0.0000 C   0  0  0  0  0  0  0  0  0  0  0  0
    1.6500   -4.4422    0.0000 C   0  0  0  0  0  0  0  0  0  0  0  0
  1  7  1  0  0  0  0
  1 19  1  0  0  0  0
  2 14  1  0  0  0  0
  2 15  1  0  0  0  0
  3 10  2  0  0  0  0
  4 19  2  0  0  0  0
  5 10  1  0  0  0  0
  5 19  1  0  0  0  0
  6 18  2  0  0  0  0
  6 24  1  0  0  0  0
  7  8  1  0  0  0  0
  7 10  1  0  0  0  0
  8  9  1  0  0  0  0
  9 11  2  0  0  0  0
  9 12  1  0  0  0  0
 11 16  1  0  0  0  0
 12 17  2  0  0  0  0
 13 15  1  0  0  0  0
 13 18  1  0  0  0  0
 14 16  2  0  0  0  0
 14 17  1  0  0  0  0
 18 21  1  0  0  0  0
 20 22  1  0  0  0  0
 20 23  1  0  0  0  0
 20 24  2  0  0  0  0
 21 23  2  0  0  0  0
 22 25  1  0  0  0  0
M  END
> <DRUGBANK_ID>
DB01132

> <DRUG_GROUPS>
approved; investigational

> <GENERIC_NAME>
Pioglitazone

> <SYNONYMS>
Pioglitazona; Pioglitazone; Pioglitazonum

> <SALTS>
Pioglitazone Hydrochloride

> <BRANDS>
Actos; Actost; Glustin

> <CHEMICAL_FORMULA>
C19H20N2O3S

> <MOLECULAR_WEIGHT>
356.439

> <EXACT_MASS>
356.119463206

> <IUPAC_NAME>
5-({4-[2-(5-ethylpyridin-2-yl)ethoxy]phenyl}methyl)-1,3-thiazolidine-2,4-dione

> <IUPAC_TRADITIONAL_NAME>
pioglitazone

> <INCHI_IDENTIFIER>
InChI=1S/C19H20N2O3S/c1-2-13-3-6-15(20-12-13)9-10-24-16-7-4-14(5-8-16)11-17-18(22)21-19(23)25-17/h3-8,12,17H,2,9-11H2,1H3,(H,21,22,23)

> <INCHI_KEY>
InChIKey=HYAFETHFCAUJAY-UHFFFAOYSA-N

> <SMILES>
CCC1=CN=C(CCOC2=CC=C(CC3SC(=O)NC3=O)C=C2)C=C1

> <JCHEM_ACCEPTOR_COUNT>
4

> <JCHEM_DONOR_COUNT>
1

> <JCHEM_ACIDIC_PKA>
6.66

> <JCHEM_BASIC_PKA>
5.6

> <JCHEM_PHYSIOLOGICAL_CHARGE>
-1

> <ALOGPS_LOGP>
3.17

> <JCHEM_LOGP>
3.33

> <ALOGPS_LOGS>
-4.9

> <JCHEM_POLARIZABILITY>
37.91

> <JCHEM_POLAR_SURFACE_AREA>
68.29

> <JCHEM_REFRACTIVITY>
97.39

> <JCHEM_ROTATABLE_BOND_COUNT>
7

> <ALOGPS_SOLUBILITY>
4.42e-03 g/l __ 

$$$$
