1534
  Mrv0541 02231215322D          

 14 13  0  0  1  0            999 V2000
    7.0944    0.8019    0.0000 Cl   0  0  0  0  0  0  0  0  0  0  0  0
    6.7925   -0.3251    0.0000 Cl   0  0  0  0  0  0  0  0  0  0  0  0
    5.9674    1.1039    0.0000 Cl   0  0  0  0  0  0  0  0  0  0  0  0
    4.9509    0.3894    0.0000 O    0  0  0  0  0  0  0  0  0  0  0  0
    2.0930   -0.4356    0.0000 O    0  0  0  0  0  0  0  0  0  0  0  0
    5.6655   -0.8481    0.0000 O    0  0  0  0  0  0  0  0  0  0  0  0
    2.8075   -0.0231    0.0000 C    0  0  0  0  0  0  0  0  0  0  0  0
    3.5220    0.3894    0.0000 C    0  0  0  0  0  0  0  0  0  0  0  0
    4.2365   -0.0231    0.0000 C    0  0  0  0  0  0  0  0  0  0  0  0
    2.3950    0.6914    0.0000 C    0  0  0  0  0  0  0  0  0  0  0  0
    3.2200   -0.7376    0.0000 C    0  0  0  0  0  0  0  0  0  0  0  0
    4.2365   -0.8481    0.0000 C    0  0  0  0  0  0  0  0  0  0  0  0
    5.6655   -0.0231    0.0000 C    0  0  0  0  0  0  0  0  0  0  0  0
    6.3799    0.3894    0.0000 C    0  0  0  0  0  0  0  0  0  0  0  0
  1 14  1  0  0  0  0
  2 14  1  0  0  0  0
  3 14  1  0  0  0  0
  4  9  1  0  0  0  0
  4 13  1  0  0  0  0
  5  7  1  0  0  0  0
  6 13  1  0  0  0  0
  7  8  1  0  0  0  0
  7 10  1  0  0  0  0
  7 11  1  0  0  0  0
  8  9  1  0  0  0  0
  9 12  1  0  0  0  0
 13 14  1  0  0  0  0
M  END
> <DRUGBANK_ID>
DB01534

> <DRUG_GROUPS>
experimental; illicit

> <GENERIC_NAME>
Chlorhexadol

> <SYNONYMS>


> <CHEMICAL_FORMULA>
C8H15Cl3O3

> <MOLECULAR_WEIGHT>
265.562

> <EXACT_MASS>
264.008677467

> <IUPAC_NAME>
2-methyl-4-(2,2,2-trichloro-1-hydroxyethoxy)pentan-2-ol

> <IUPAC_TRADITIONAL_NAME>
chloralodol

> <INCHI_IDENTIFIER>
InChI=1S/C8H15Cl3O3/c1-5(4-7(2,3)13)14-6(12)8(9,10)11/h5-6,12-13H,4H2,1-3H3

> <INCHI_KEY>
InChIKey=QVFWZNCVPCJQOP-UHFFFAOYSA-N

> <SMILES>
CC(CC(C)(C)O)OC(O)C(Cl)(Cl)Cl

> <JCHEM_ACCEPTOR_COUNT>
3

> <JCHEM_DONOR_COUNT>
2

> <JCHEM_ACIDIC_PKA>
9.67

> <JCHEM_BASIC_PKA>
-2.7

> <JCHEM_PHYSIOLOGICAL_CHARGE>
0

> <ALOGPS_LOGP>
2.34

> <JCHEM_LOGP>
1.82

> <ALOGPS_LOGS>
-2.3

> <JCHEM_POLARIZABILITY>
24.4

> <JCHEM_POLAR_SURFACE_AREA>
49.69

> <JCHEM_REFRACTIVITY>
58.63

> <JCHEM_ROTATABLE_BOND_COUNT>
5

> <ALOGPS_SOLUBILITY>
1.24e+00 g/l __ 

$$$$
