
  Mrv0541 02231215372D          

 20 22  0  0  1  0            999 V2000
   -3.4914   -0.1105    0.0000 N   0  0  0  0  0  0  0  0  0  0  0  0
   -3.0789    0.6039    0.0000 C   0  0  1  0  0  0  0  0  0  0  0  0
   -2.2539    0.6039    0.0000 C   0  0  0  0  0  0  0  0  0  0  0  0
   -1.8414   -0.1105    0.0000 C   0  0  0  0  0  0  0  0  0  0  0  0
   -2.2539   -0.8250    0.0000 C   0  0  0  0  0  0  0  0  0  0  0  0
   -1.8414   -1.5395    0.0000 C   0  0  0  0  0  0  0  0  0  0  0  0
   -1.0164   -1.5395    0.0000 C   0  0  0  0  0  0  0  0  0  0  0  0
   -0.6039   -2.2539    0.0000 C   0  0  0  0  0  0  0  0  0  0  0  0
    0.2211   -2.2539    0.0000 C   0  0  0  0  0  0  0  0  0  0  0  0
    0.6336   -1.5395    0.0000 C   0  0  0  0  0  0  0  0  0  0  0  0
    0.2211   -0.8250    0.0000 C   0  0  0  0  0  0  0  0  0  0  0  0
    0.6336   -0.1105    0.0000 N   0  0  0  0  0  0  0  0  0  0  0  0
    1.4586   -0.1105    0.0000 C   0  0  0  0  0  0  0  0  0  0  0  0
    1.8711   -0.8250    0.0000 C   0  0  0  0  0  0  0  0  0  0  0  0
    1.4586   -1.5395    0.0000 C   0  0  0  0  0  0  0  0  0  0  0  0
   -0.6039   -0.8250    0.0000 C   0  0  0  0  0  0  0  0  0  0  0  0
   -1.0164   -0.1105    0.0000 N   0  0  0  0  0  0  0  0  0  0  0  0
   -3.4914    1.3184    0.0000 C   0  0  0  0  0  0  0  0  0  0  0  0
   -4.3164    1.3184    0.0000 O   0  0  0  0  0  0  0  0  0  0  0  0
   -3.0789    2.0329    0.0000 O   0  0  0  0  0  0  0  0  0  0  0  0
  2  1  1  6  0  0  0
  2  3  1  0  0  0  0
  3  4  1  0  0  0  0
  4  5  2  0  0  0  0
  5  6  1  0  0  0  0
  6  7  2  0  0  0  0
  7  8  1  0  0  0  0
  8  9  2  0  0  0  0
  9 10  1  0  0  0  0
 10 11  2  0  0  0  0
 11 12  1  0  0  0  0
 12 13  2  0  0  0  0
 13 14  1  0  0  0  0
 14 15  2  0  0  0  0
 10 15  1  0  0  0  0
 11 16  1  0  0  0  0
  7 16  1  0  0  0  0
 16 17  2  0  0  0  0
  4 17  1  0  0  0  0
  2 18  1  0  0  0  0
 18 19  1  0  0  0  0
 18 20  2  0  0  0  0
M  END
> <DRUGBANK_ID>
DB01659

> <DRUG_GROUPS>
experimental

> <GENERIC_NAME>
3-(1,10-Phenanthrol-2-Yl)-L-Alanine

> <CHEMICAL_FORMULA>
C15H13N3O2

> <MOLECULAR_WEIGHT>
267.2826

> <EXACT_MASS>
267.100776675

> <IUPAC_NAME>
(2S)-2-amino-3-(1,10-phenanthrolin-2-yl)propanoic acid

> <IUPAC_TRADITIONAL_NAME>
(2S)-2-amino-3-(1,10-phenanthrolin-2-yl)propanoic acid

> <INCHI_IDENTIFIER>
InChI=1S/C15H13N3O2/c16-12(15(19)20)8-11-6-5-10-4-3-9-2-1-7-17-13(9)14(10)18-11/h1-7,12H,8,16H2,(H,19,20)/t12-/m0/s1

> <INCHI_KEY>
InChIKey=LODBCIBKOKOGNL-LBPRGKRZSA-N

> <SMILES>
N[C@@H](CC1=CC=C2C=CC3=C(N=CC=C3)C2=N1)C(O)=O

> <JCHEM_ACCEPTOR_COUNT>
5

> <JCHEM_DONOR_COUNT>
2

> <JCHEM_ACIDIC_PKA>
2.14

> <JCHEM_BASIC_PKA>
9.28

> <JCHEM_PHYSIOLOGICAL_CHARGE>
0

> <ALOGPS_LOGP>
-0.73

> <JCHEM_LOGP>
-0.84

> <ALOGPS_LOGS>
-3.3

> <JCHEM_POLARIZABILITY>
27.5

> <JCHEM_POLAR_SURFACE_AREA>
89.1

> <JCHEM_REFRACTIVITY>
72.38

> <JCHEM_ROTATABLE_BOND_COUNT>
3

> <ALOGPS_SOLUBILITY>
1.21e-01 g/l __ 

$$$$
