
  Mrv0541 02231215422D          

  7  6  0  0  0  0            999 V2000
    1.2375    2.1434    0.0000 C   0  0  0  0  0  0  0  0  0  0  0  0
    0.8250    1.4289    0.0000 C   0  0  0  0  0  0  0  0  0  0  0  0
    0.0000    1.4289    0.0000 O   0  0  0  0  0  0  0  0  0  0  0  0
    1.2375    0.7145    0.0000 C   0  0  0  0  0  0  0  0  0  0  0  0
    0.8250    0.0000    0.0000 C   0  0  0  0  0  0  0  0  0  0  0  0
    1.2375   -0.7145    0.0000 O   0  0  0  0  0  0  0  0  0  0  0  0
    0.0000    0.0000    0.0000 O   0  0  0  0  0  0  0  0  0  0  0  0
  1  2  1  0  0  0  0
  2  3  2  0  0  0  0
  2  4  1  0  0  0  0
  4  5  1  0  0  0  0
  5  6  1  0  0  0  0
  5  7  2  0  0  0  0
M  END
> <DRUGBANK_ID>
DB01762

> <DRUG_GROUPS>
experimental

> <GENERIC_NAME>
Acetoacetic Acid

> <CHEMICAL_FORMULA>
C4H6O3

> <MOLECULAR_WEIGHT>
102.0886

> <EXACT_MASS>
102.031694058

> <IUPAC_NAME>
3-oxobutanoic acid

> <IUPAC_TRADITIONAL_NAME>
acetoacetic acid

> <INCHI_IDENTIFIER>
InChI=1S/C4H6O3/c1-3(5)2-4(6)7/h2H2,1H3,(H,6,7)

> <INCHI_KEY>
InChIKey=WDJHALXBUFZDSR-UHFFFAOYSA-N

> <SMILES>
CC(=O)CC(O)=O

> <JCHEM_ACCEPTOR_COUNT>
3

> <JCHEM_DONOR_COUNT>
1

> <JCHEM_ACIDIC_PKA>
4.02

> <JCHEM_BASIC_PKA>
-7.5

> <JCHEM_PHYSIOLOGICAL_CHARGE>
-1

> <ALOGPS_LOGP>
-0.47

> <JCHEM_LOGP>
-0.0015

> <ALOGPS_LOGS>
0.37

> <JCHEM_POLARIZABILITY>
9.18

> <JCHEM_POLAR_SURFACE_AREA>
54.37

> <JCHEM_REFRACTIVITY>
22.54

> <JCHEM_ROTATABLE_BOND_COUNT>
2

> <ALOGPS_SOLUBILITY>
2.40e+02 g/l __ 

$$$$
