1454
  Mrv0541 02231215302D          

 14 15  0  0  1  0            999 V2000
    6.7171    0.4081    0.0000 O   0  0  0  0  0  0  0  0  0  0  0  0
    6.7171   -0.9195    0.0000 O   0  0  0  0  0  0  0  0  0  0  0  0
    2.3643    0.5693    0.0000 N   0  0  0  0  0  0  0  0  0  0  0  0
    3.0789    0.1568    0.0000 C   0  0  0  0  0  0  0  0  0  0  0  0
    3.7932    0.5693    0.0000 C   0  0  0  0  0  0  0  0  0  0  0  0
    4.5077    0.1568    0.0000 C   0  0  0  0  0  0  0  0  0  0  0  0
    3.0789   -0.6682    0.0000 C   0  0  0  0  0  0  0  0  0  0  0  0
    5.2220    0.5693    0.0000 C   0  0  0  0  0  0  0  0  0  0  0  0
    5.9365    0.1568    0.0000 C   0  0  0  0  0  0  0  0  0  0  0  0
    4.5077   -0.6682    0.0000 C   0  0  0  0  0  0  0  0  0  0  0  0
    5.9365   -0.6682    0.0000 C   0  0  0  0  0  0  0  0  0  0  0  0
    5.2220   -1.0807    0.0000 C   0  0  0  0  0  0  0  0  0  0  0  0
    1.6499    0.1568    0.0000 C   0  0  0  0  0  0  0  0  0  0  0  0
    7.1986   -0.2558    0.0000 C   0  0  0  0  0  0  0  0  0  0  0  0
  1  9  1  0  0  0  0
  1 14  1  0  0  0  0
  2 11  1  0  0  0  0
  2 14  1  0  0  0  0
  3  4  1  0  0  0  0
  3 13  1  0  0  0  0
  4  5  1  0  0  0  0
  4  7  1  0  0  0  0
  5  6  1  0  0  0  0
  6  8  2  0  0  0  0
  6 10  1  0  0  0  0
  8  9  1  0  0  0  0
  9 11  2  0  0  0  0
 10 12  2  0  0  0  0
 11 12  1  0  0  0  0
M  END
> <DRUGBANK_ID>
DB01454

> <DRUG_GROUPS>
experimental; illicit

> <GENERIC_NAME>
3,4-Methylenedioxymethamphetamine

> <SYNONYMS>
MDMA

> <CHEMICAL_FORMULA>
C11H15NO2

> <MOLECULAR_WEIGHT>
193.2423

> <EXACT_MASS>
193.110278729

> <IUPAC_NAME>
[1-(2H-1,3-benzodioxol-5-yl)propan-2-yl](methyl)amine

> <IUPAC_TRADITIONAL_NAME>
MDMA

> <INCHI_IDENTIFIER>
InChI=1S/C11H15NO2/c1-8(12-2)5-9-3-4-10-11(6-9)14-7-13-10/h3-4,6,8,12H,5,7H2,1-2H3

> <INCHI_KEY>
InChIKey=SHXWCVYOXRDMCX-UHFFFAOYSA-N

> <SMILES>
CNC(C)CC1=CC2=C(OCO2)C=C1

> <JCHEM_ACCEPTOR_COUNT>
3

> <JCHEM_DONOR_COUNT>
1

> <JCHEM_BASIC_PKA>
10.14

> <JCHEM_PHYSIOLOGICAL_CHARGE>
1

> <ALOGPS_LOGP>
1.65

> <JCHEM_LOGP>
1.86

> <ALOGPS_LOGS>
-1.8

> <JCHEM_POLARIZABILITY>
21.49

> <JCHEM_POLAR_SURFACE_AREA>
30.49

> <JCHEM_REFRACTIVITY>
54.25

> <JCHEM_ROTATABLE_BOND_COUNT>
3

> <ALOGPS_SOLUBILITY>
3.22e+00 g/l __ 

$$$$
