1146
  Mrv0541 02231215172D          

 21 23  0  0  0  0            999 V2000
    2.3645    0.2063    0.0000 O   0  0  0  0  0  0  0  0  0  0  0  0
    2.3645   -2.2688    0.0000 N   0  0  0  0  0  0  0  0  0  0  0  0
    2.3645   -0.6188    0.0000 C   0  0  0  0  0  0  0  0  0  0  0  0
    1.6500   -1.0313    0.0000 C   0  0  0  0  0  0  0  0  0  0  0  0
    3.0791   -1.0313    0.0000 C   0  0  0  0  0  0  0  0  0  0  0  0
    1.6500   -1.8563    0.0000 C   0  0  0  0  0  0  0  0  0  0  0  0
    3.0791   -1.8563    0.0000 C   0  0  0  0  0  0  0  0  0  0  0  0
    3.0791    0.6188    0.0000 C   0  0  0  0  0  0  0  0  0  0  0  0
    2.3645   -3.0938    0.0000 C   0  0  0  0  0  0  0  0  0  0  0  0
    3.0791    1.4438    0.0000 C   0  0  0  0  0  0  0  0  0  0  0  0
    3.7935    0.2063    0.0000 C   0  0  0  0  0  0  0  0  0  0  0  0
    2.3645    1.8563    0.0000 C   0  0  0  0  0  0  0  0  0  0  0  0
    3.7935   -0.6188    0.0000 C   0  0  0  0  0  0  0  0  0  0  0  0
    3.7935    1.8563    0.0000 C   0  0  0  0  0  0  0  0  0  0  0  0
    4.5080    0.6188    0.0000 C   0  0  0  0  0  0  0  0  0  0  0  0
    2.3645    2.6813    0.0000 C   0  0  0  0  0  0  0  0  0  0  0  0
    4.5080   -1.0313    0.0000 C   0  0  0  0  0  0  0  0  0  0  0  0
    3.7935    2.6813    0.0000 C   0  0  0  0  0  0  0  0  0  0  0  0
    5.2224    0.2063    0.0000 C   0  0  0  0  0  0  0  0  0  0  0  0
    3.0791    3.0938    0.0000 C   0  0  0  0  0  0  0  0  0  0  0  0
    5.2224   -0.6188    0.0000 C   0  0  0  0  0  0  0  0  0  0  0  0
  1  3  1  0  0  0  0
  1  8  1  0  0  0  0
  2  6  1  0  0  0  0
  2  7  1  0  0  0  0
  2  9  1  0  0  0  0
  3  4  1  0  0  0  0
  3  5  1  0  0  0  0
  4  6  1  0  0  0  0
  5  7  1  0  0  0  0
  8 10  1  0  0  0  0
  8 11  1  0  0  0  0
 10 12  2  0  0  0  0
 10 14  1  0  0  0  0
 11 13  2  0  0  0  0
 11 15  1  0  0  0  0
 12 16  1  0  0  0  0
 13 17  1  0  0  0  0
 14 18  2  0  0  0  0
 15 19  2  0  0  0  0
 16 20  2  0  0  0  0
 17 21  2  0  0  0  0
 18 20  1  0  0  0  0
 19 21  1  0  0  0  0
M  END
> <DRUGBANK_ID>
DB01146

> <DRUG_GROUPS>
approved

> <GENERIC_NAME>
Diphenylpyraline

> <SYNONYMS>
Diphenylpyralamine

> <SALTS>
Diphenylpyraline Hydrochloride

> <BRANDS>
Allergen; Arbid; Belfene; Diafen; Hispril; Histyn; Lergobine; Lyssipoll; Mepiben; Neargal

> <CHEMICAL_FORMULA>
C19H23NO

> <MOLECULAR_WEIGHT>
281.392

> <EXACT_MASS>
281.177964363

> <IUPAC_NAME>
4-(diphenylmethoxy)-1-methylpiperidine

> <IUPAC_TRADITIONAL_NAME>
diphenylpyraline

> <INCHI_IDENTIFIER>
InChI=1S/C19H23NO/c1-20-14-12-18(13-15-20)21-19(16-8-4-2-5-9-16)17-10-6-3-7-11-17/h2-11,18-19H,12-15H2,1H3

> <INCHI_KEY>
InChIKey=OWQUZNMMYNAXSL-UHFFFAOYSA-N

> <SMILES>
CN1CCC(CC1)OC(C1=CC=CC=C1)C1=CC=CC=C1

> <JCHEM_ACCEPTOR_COUNT>
2

> <JCHEM_DONOR_COUNT>
0

> <JCHEM_BASIC_PKA>
8.87

> <JCHEM_PHYSIOLOGICAL_CHARGE>
1

> <ALOGPS_LOGP>
3.82

> <JCHEM_LOGP>
3.66

> <ALOGPS_LOGS>
-4.2

> <JCHEM_POLARIZABILITY>
32.97

> <JCHEM_POLAR_SURFACE_AREA>
12.47

> <JCHEM_REFRACTIVITY>
87.36

> <JCHEM_ROTATABLE_BOND_COUNT>
4

> <ALOGPS_SOLUBILITY>
1.88e-02 g/l __ 

$$$$
