
  Mrv0541 02231215432D          

 39 40  0  0  1  0            999 V2000
    6.6255    4.1101    0.0000 C   0  0  0  0  0  0  0  0  0  0  0  0
    6.4696    3.3000    0.0000 N   0  0  0  0  0  0  0  0  0  0  0  0
    5.6900    3.0300    0.0000 C   0  0  0  0  0  0  0  0  0  0  0  0
    5.0664    3.5700    0.0000 C   0  0  0  0  0  0  0  0  0  0  0  0
    4.2868    3.3000    0.0000 C   0  0  0  0  0  0  0  0  0  0  0  0
    3.6632    3.8401    0.0000 C   0  0  0  0  0  0  0  0  0  0  0  0
    2.8836    3.5700    0.0000 C   0  0  0  0  0  0  0  0  0  0  0  0
    2.2600    4.1101    0.0000 C   0  0  0  0  0  0  0  0  0  0  0  0
    2.4159    4.9203    0.0000 C   0  0  0  0  0  0  0  0  0  0  0  0
    3.1955    5.1903    0.0000 C   0  0  0  0  0  0  0  0  0  0  0  0
    3.8191    4.6502    0.0000 C   0  0  0  0  0  0  0  0  0  0  0  0
    7.0932    2.7599    0.0000 C   0  0  0  0  0  0  0  0  0  0  0  0
    6.9373    1.9498    0.0000 O   0  0  0  0  0  0  0  0  0  0  0  0
    7.8728    3.0300    0.0000 C   0  0  1  0  0  0  0  0  0  0  0  0
    8.0287    3.8401    0.0000 C   0  0  0  0  0  0  0  0  0  0  0  0
    8.8082    4.1101    0.0000 C   0  0  0  0  0  0  0  0  0  0  0  0
    8.9641    4.9203    0.0000 C   0  0  0  0  0  0  0  0  0  0  0  0
    8.3405    5.4604    0.0000 O   0  0  0  0  0  0  0  0  0  0  0  0
    9.7437    5.1903    0.0000 O   0  0  0  0  0  0  0  0  0  0  0  0
    8.4964    2.4899    0.0000 N   0  0  0  0  0  0  0  0  0  0  0  0
    9.2760    2.7599    0.0000 C   0  0  0  0  0  0  0  0  0  0  0  0
    9.4319    3.5700    0.0000 O   0  0  0  0  0  0  0  0  0  0  0  0
    9.8996    2.2198    0.0000 N   0  0  0  0  0  0  0  0  0  0  0  0
   10.6791    2.4899    0.0000 C   0  0  0  0  0  0  0  0  0  0  0  0
   10.8351    3.3000    0.0000 C   0  0  0  0  0  0  0  0  0  0  0  0
   11.6146    3.5700    0.0000 O   0  0  0  0  0  0  0  0  0  0  0  0
   10.2114    3.8401    0.0000 O   0  0  0  0  0  0  0  0  0  0  0  0
    9.7437    1.4097    0.0000 C   0  0  0  0  0  0  0  0  0  0  0  0
    8.9641    1.1396    0.0000 C   0  0  0  0  0  0  0  0  0  0  0  0
    8.8082    0.3295    0.0000 C   0  0  0  0  0  0  0  0  0  0  0  0
    8.0287    0.0595    0.0000 C   0  0  0  0  0  0  0  0  0  0  0  0
    7.4050    0.5996    0.0000 C   0  0  0  0  0  0  0  0  0  0  0  0
    6.6255    0.3295    0.0000 O   0  0  0  0  0  0  0  0  0  0  0  0
    6.4696   -0.4806    0.0000 P   0  0  0  0  0  0  0  0  0  0  0  0
    6.3137   -1.2908    0.0000 O   0  0  0  0  0  0  0  0  0  0  0  0
    5.6594   -0.3247    0.0000 O   0  0  0  0  0  0  0  0  0  0  0  0
    7.2797   -0.6365    0.0000 O   0  0  0  0  0  0  0  0  0  0  0  0
    7.5609    1.4097    0.0000 C   0  0  0  0  0  0  0  0  0  0  0  0
    8.3405    1.6797    0.0000 C   0  0  0  0  0  0  0  0  0  0  0  0
  1  2  1  0  0  0  0
  2  3  1  0  0  0  0
  3  4  1  0  0  0  0
  4  5  1  0  0  0  0
  5  6  1  0  0  0  0
  6  7  1  0  0  0  0
  7  8  1  0  0  0  0
  8  9  1  0  0  0  0
  9 10  1  0  0  0  0
 10 11  1  0  0  0  0
  6 11  1  0  0  0  0
  2 12  1  0  0  0  0
 12 13  2  0  0  0  0
 12 14  1  0  0  0  0
 14 15  1  0  0  0  0
 15 16  1  0  0  0  0
 16 17  1  0  0  0  0
 17 18  1  0  0  0  0
 17 19  2  0  0  0  0
 14 20  1  1  0  0  0
 20 21  1  0  0  0  0
 21 22  2  0  0  0  0
 21 23  1  0  0  0  0
 23 24  1  0  0  0  0
 24 25  1  0  0  0  0
 25 26  1  0  0  0  0
 25 27  2  0  0  0  0
 23 28  1  0  0  0  0
 28 29  1  0  0  0  0
 29 30  2  0  0  0  0
 30 31  1  0  0  0  0
 31 32  2  0  0  0  0
 32 33  1  0  0  0  0
 33 34  1  0  0  0  0
 34 35  1  0  0  0  0
 34 36  1  0  0  0  0
 34 37  2  0  0  0  0
 32 38  1  0  0  0  0
 38 39  2  0  0  0  0
 29 39  1  0  0  0  0
M  END
> <DRUGBANK_ID>
DB01773

> <DRUG_GROUPS>
experimental

> <GENERIC_NAME>
4-[3-Carboxymethyl-3-(4-Phosphonooxy-Benzyl)-Ureido]-4-[(3-Cyclohexyl-Propyl)-Methyl-Carbamoyl]Butyric Acid

> <CHEMICAL_FORMULA>
C25H38N3O10P

> <MOLECULAR_WEIGHT>
571.5571

> <EXACT_MASS>
571.229480963

> <IUPAC_NAME>
(4R)-4-{[(carboxymethyl)({[4-(phosphonooxy)phenyl]methyl})carbamoyl]amino}-4-[(3-cyclohexylpropyl)(methyl)carbamoyl]butanoic acid

> <IUPAC_TRADITIONAL_NAME>
(4R)-4-{[carboxymethyl({[4-(phosphonooxy)phenyl]methyl})carbamoyl]amino}-4-[(3-cyclohexylpropyl)(methyl)carbamoyl]butanoic acid

> <INCHI_IDENTIFIER>
InChI=1S/C25H38N3O10P/c1-27(15-5-8-18-6-3-2-4-7-18)24(33)21(13-14-22(29)30)26-25(34)28(17-23(31)32)16-19-9-11-20(12-10-19)38-39(35,36)37/h9-12,18,21H,2-8,13-17H2,1H3,(H,26,34)(H,29,30)(H,31,32)(H2,35,36,37)/t21-/m1/s1

> <INCHI_KEY>
InChIKey=JSBQUMXQEBZYPW-OAQYLSRUSA-N

> <SMILES>
CN(CCCC1CCCCC1)C(=O)[C@@H](CCC(O)=O)NC(=O)N(CC(O)=O)CC1=CC=C(OP(O)(O)=O)C=C1

> <JCHEM_ACCEPTOR_COUNT>
9

> <JCHEM_DONOR_COUNT>
5

> <JCHEM_ACIDIC_PKA>
1.78

> <JCHEM_BASIC_PKA>
-2.5

> <JCHEM_PHYSIOLOGICAL_CHARGE>
-4

> <ALOGPS_LOGP>
1.86

> <JCHEM_LOGP>
1.81

> <ALOGPS_LOGS>
-5.2

> <JCHEM_POLARIZABILITY>
56.77

> <JCHEM_POLAR_SURFACE_AREA>
194.01

> <JCHEM_REFRACTIVITY>
139.39

> <JCHEM_ROTATABLE_BOND_COUNT>
15

> <ALOGPS_SOLUBILITY>
3.21e-03 g/l __ 

$$$$
