1442
  Mrv0541 02231215292D          

 15 16  0  0  1  0            999 V2000
    6.4461   -1.0269    0.0000 O   0  0  0  0  0  0  0  0  0  0  0  0
    6.4461    0.3009    0.0000 O   0  0  0  0  0  0  0  0  0  0  0  0
    4.9509    1.2870    0.0000 O   0  0  0  0  0  0  0  0  0  0  0  0
    2.0930   -1.1880    0.0000 N   0  0  0  0  0  0  0  0  0  0  0  0
    3.5220   -1.1880    0.0000 C   0  0  0  0  0  0  0  0  0  0  0  0
    2.8075   -0.7755    0.0000 C   0  0  0  0  0  0  0  0  0  0  0  0
    4.2365   -0.7755    0.0000 C   0  0  0  0  0  0  0  0  0  0  0  0
    4.9509   -1.1880    0.0000 C   0  0  0  0  0  0  0  0  0  0  0  0
    5.6655   -0.7755    0.0000 C   0  0  0  0  0  0  0  0  0  0  0  0
    4.2365    0.0495    0.0000 C   0  0  0  0  0  0  0  0  0  0  0  0
    5.6655    0.0495    0.0000 C   0  0  0  0  0  0  0  0  0  0  0  0
    4.9509    0.4620    0.0000 C   0  0  0  0  0  0  0  0  0  0  0  0
    2.8075    0.0495    0.0000 C   0  0  0  0  0  0  0  0  0  0  0  0
    6.9276   -0.3630    0.0000 C   0  0  0  0  0  0  0  0  0  0  0  0
    4.2365    1.6995    0.0000 C   0  0  0  0  0  0  0  0  0  0  0  0
  1  9  1  0  0  0  0
  1 14  1  0  0  0  0
  2 11  1  0  0  0  0
  2 14  1  0  0  0  0
  3 12  1  0  0  0  0
  3 15  1  0  0  0  0
  4  6  1  0  0  0  0
  5  6  1  0  0  0  0
  5  7  1  0  0  0  0
  6 13  1  0  0  0  0
  7  8  2  0  0  0  0
  7 10  1  0  0  0  0
  8  9  1  0  0  0  0
  9 11  2  0  0  0  0
 10 12  2  0  0  0  0
 11 12  1  0  0  0  0
M  END
> <DRUGBANK_ID>
DB01442

> <DRUG_GROUPS>
experimental; illicit

> <GENERIC_NAME>
MMDA

> <SYNONYMS>


> <CHEMICAL_FORMULA>
C11H15NO3

> <MOLECULAR_WEIGHT>
209.2417

> <EXACT_MASS>
209.105193351

> <IUPAC_NAME>
1-(7-methoxy-2H-1,3-benzodioxol-5-yl)propan-2-amine

> <IUPAC_TRADITIONAL_NAME>
MMDA

> <INCHI_IDENTIFIER>
InChI=1S/C11H15NO3/c1-7(12)3-8-4-9(13-2)11-10(5-8)14-6-15-11/h4-5,7H,3,6,12H2,1-2H3

> <INCHI_KEY>
InChIKey=YQYUWUKDEVZFDB-UHFFFAOYSA-N

> <SMILES>
COC1=CC(CC(C)N)=CC2=C1OCO2

> <JCHEM_ACCEPTOR_COUNT>
4

> <JCHEM_DONOR_COUNT>
1

> <JCHEM_BASIC_PKA>
9.99

> <JCHEM_PHYSIOLOGICAL_CHARGE>
1

> <ALOGPS_LOGP>
1.07

> <JCHEM_LOGP>
1.27

> <ALOGPS_LOGS>
-1.9

> <JCHEM_POLARIZABILITY>
22.38

> <JCHEM_POLAR_SURFACE_AREA>
53.71

> <JCHEM_REFRACTIVITY>
55.94

> <JCHEM_ROTATABLE_BOND_COUNT>
3

> <ALOGPS_SOLUBILITY>
2.71e+00 g/l __ 

$$$$
