
  Mrv0541 02231215392D          

 49 54  0  0  1  0            999 V2000
  -10.9440    7.5498    0.0000 N   0  0  0  0  0  0  0  0  0  0  0  0
  -10.3920    6.9367    0.0000 C   0  0  0  0  0  0  0  0  0  0  0  0
   -9.5850    7.1082    0.0000 N   0  0  0  0  0  0  0  0  0  0  0  0
   -9.0330    6.4951    0.0000 C   0  0  0  0  0  0  0  0  0  0  0  0
   -9.2879    5.7105    0.0000 N   0  0  0  0  0  0  0  0  0  0  0  0
  -10.0949    5.5390    0.0000 C   0  0  0  0  0  0  0  0  0  0  0  0
  -10.6469    6.1520    0.0000 C   0  0  0  0  0  0  0  0  0  0  0  0
  -11.4006    5.8165    0.0000 N   0  0  0  0  0  0  0  0  0  0  0  0
  -11.3144    4.9960    0.0000 C   0  0  0  0  0  0  0  0  0  0  0  0
  -10.5074    4.8245    0.0000 N   0  0  0  0  0  0  0  0  0  0  0  0
  -10.1718    4.0708    0.0000 C   0  0  2  0  0  0  0  0  0  0  0  0
   -9.3649    3.8993    0.0000 O   0  0  0  0  0  0  0  0  0  0  0  0
   -9.2786    3.0788    0.0000 C   0  0  1  0  0  0  0  0  0  0  0  0
   -8.5642    2.6663    0.0000 C   0  0  0  0  0  0  0  0  0  0  0  0
   -7.8497    3.0788    0.0000 O   0  0  0  0  0  0  0  0  0  0  0  0
   -7.1352    2.6663    0.0000 P   0  0  2  0  0  0  0  0  0  0  0  0
   -7.5477    1.9518    0.0000 O   0  0  0  0  0  0  0  0  0  0  0  0
   -6.7227    3.3808    0.0000 O   0  0  0  0  0  0  0  0  0  0  0  0
   -6.4207    2.2538    0.0000 O   0  0  0  0  0  0  0  0  0  0  0  0
   -5.7063    2.6663    0.0000 P   0  0  0  0  0  0  0  0  0  0  0  0
   -5.2938    1.9518    0.0000 O   0  0  0  0  0  0  0  0  0  0  0  0
   -6.1188    3.3808    0.0000 O   0  0  0  0  0  0  0  0  0  0  0  0
   -4.9918    3.0788    0.0000 O   0  0  0  0  0  0  0  0  0  0  0  0
   -4.2773    2.6663    0.0000 P   0  0  1  0  0  0  0  0  0  0  0  0
   -4.6898    1.9518    0.0000 O   0  0  0  0  0  0  0  0  0  0  0  0
   -3.8648    3.3808    0.0000 O   0  0  0  0  0  0  0  0  0  0  0  0
   -3.5629    2.2538    0.0000 O   0  0  0  0  0  0  0  0  0  0  0  0
   -2.8484    2.6663    0.0000 C   0  0  0  0  0  0  0  0  0  0  0  0
   -2.1339    2.2538    0.0000 C   0  0  2  0  0  0  0  0  0  0  0  0
   -1.3802    2.5894    0.0000 O   0  0  0  0  0  0  0  0  0  0  0  0
   -0.8282    1.9763    0.0000 C   0  0  2  0  0  0  0  0  0  0  0  0
   -1.2407    1.2618    0.0000 C   0  0  2  0  0  0  0  0  0  0  0  0
   -0.9052    0.5081    0.0000 O   0  0  0  0  0  0  0  0  0  0  0  0
   -2.0477    1.4333    0.0000 C   0  0  1  0  0  0  0  0  0  0  0  0
   -2.6608    0.8813    0.0000 O   0  0  0  0  0  0  0  0  0  0  0  0
   -0.0077    2.0625    0.0000 N   0  0  0  0  0  0  0  0  0  0  0  0
    0.5443    1.4494    0.0000 C   0  0  0  0  0  0  0  0  0  0  0  0
    1.2980    1.7850    0.0000 N   0  0  0  0  0  0  0  0  0  0  0  0
    1.2117    2.6054    0.0000 C   0  0  0  0  0  0  0  0  0  0  0  0
    0.4048    2.7770    0.0000 C   0  0  0  0  0  0  0  0  0  0  0  0
    0.1498    3.5616    0.0000 N   0  0  0  0  0  0  0  0  0  0  0  0
    0.7019    4.1747    0.0000 C   0  0  0  0  0  0  0  0  0  0  0  0
    1.5088    4.0032    0.0000 N   0  0  0  0  0  0  0  0  0  0  0  0
    1.7638    3.2185    0.0000 C   0  0  0  0  0  0  0  0  0  0  0  0
    2.5707    3.0470    0.0000 N   0  0  0  0  0  0  0  0  0  0  0  0
  -10.0323    2.7432    0.0000 C   0  0  2  0  0  0  0  0  0  0  0  0
  -10.2038    1.9363    0.0000 O   0  0  0  0  0  0  0  0  0  0  0  0
  -10.5843    3.3563    0.0000 C   0  0  1  0  0  0  0  0  0  0  0  0
  -11.4048    3.2701    0.0000 O   0  0  0  0  0  0  0  0  0  0  0  0
  1  2  1  0  0  0  0
  2  3  2  0  0  0  0
  3  4  1  0  0  0  0
  4  5  2  0  0  0  0
  5  6  1  0  0  0  0
  6  7  2  0  0  0  0
  2  7  1  0  0  0  0
  7  8  1  0  0  0  0
  8  9  2  0  0  0  0
  9 10  1  0  0  0  0
  6 10  1  0  0  0  0
 11 10  1  6  0  0  0
 11 12  1  0  0  0  0
 12 13  1  0  0  0  0
 13 14  1  1  0  0  0
 14 15  1  0  0  0  0
 16 15  1  6  0  0  0
 16 17  1  1  0  0  0
 16 18  2  0  0  0  0
 16 19  1  0  0  0  0
 19 20  1  0  0  0  0
 20 21  1  0  0  0  0
 20 22  2  0  0  0  0
 20 23  1  0  0  0  0
 24 23  1  1  0  0  0
 24 25  1  6  0  0  0
 24 26  2  0  0  0  0
 24 27  1  0  0  0  0
 27 28  1  0  0  0  0
 29 28  1  6  0  0  0
 29 30  1  0  0  0  0
 30 31  1  0  0  0  0
 31 32  1  0  0  0  0
 32 33  1  6  0  0  0
 32 34  1  0  0  0  0
 29 34  1  0  0  0  0
 34 35  1  1  0  0  0
 31 36  1  1  0  0  0
 36 37  1  0  0  0  0
 37 38  2  0  0  0  0
 38 39  1  0  0  0  0
 39 40  2  0  0  0  0
 36 40  1  0  0  0  0
 40 41  1  0  0  0  0
 41 42  2  0  0  0  0
 42 43  1  0  0  0  0
 43 44  2  0  0  0  0
 39 44  1  0  0  0  0
 44 45  1  0  0  0  0
 13 46  1  0  0  0  0
 46 47  1  6  0  0  0
 46 48  1  0  0  0  0
 11 48  1  0  0  0  0
 48 49  1  1  0  0  0
M  END
> <DRUGBANK_ID>
DB01690

> <DRUG_GROUPS>
experimental

> <GENERIC_NAME>
Bis(Adenosine)-5'-Triphosphate

> <CHEMICAL_FORMULA>
C20H27N10O16P3

> <MOLECULAR_WEIGHT>
756.4071

> <EXACT_MASS>
756.081934402

> <IUPAC_NAME>
{[(2S,3R,4R,5R)-5-(6-amino-9H-purin-9-yl)-3,4-dihydroxyoxolan-2-yl]methoxy}({[({[(2S,3R,4R,5R)-5-(6-amino-9H-purin-9-yl)-3,4-dihydroxyoxolan-2-yl]methoxy}(hydroxy)phosphoryl)oxy](hydroxy)phosphoryl}oxy)phosphinic acid

> <IUPAC_TRADITIONAL_NAME>
[(2S,3R,4R,5R)-5-(6-aminopurin-9-yl)-3,4-dihydroxyoxolan-2-yl]methoxy({[(2S,3R,4R,5R)-5-(6-aminopurin-9-yl)-3,4-dihydroxyoxolan-2-yl]methoxy(hydroxy)phosphoryl}oxy(hydroxy)phosphoryl)oxyphosphinic acid

> <INCHI_IDENTIFIER>
InChI=1S/C20H27N10O16P3/c21-15-9-17(25-3-23-15)29(5-27-9)19-13(33)11(31)7(43-19)1-41-47(35,36)45-49(39,40)46-48(37,38)42-2-8-12(32)14(34)20(44-8)30-6-28-10-16(22)24-4-26-18(10)30/h3-8,11-14,19-20,31-34H,1-2H2,(H,35,36)(H,37,38)(H,39,40)(H2,21,23,25)(H2,22,24,26)/t7-,8-,11-,12-,13+,14+,19+,20+/m0/s1

> <INCHI_KEY>
InChIKey=QCICUPZZLIQAPA-APSSSFQSSA-N

> <SMILES>
NC1=NC=NC2=C1N=CN2[C@@H]1O[C@@H](CO[P@](O)(=O)OP(O)(=O)O[P@@](O)(=O)OC[C@@H]2O[C@H]([C@H](O)[C@H]2O)N2C=NC3=C2N=CN=C3N)[C@H](O)[C@H]1O

> <JCHEM_ACCEPTOR_COUNT>
20

> <JCHEM_DONOR_COUNT>
9

> <JCHEM_ACIDIC_PKA>
0.91

> <JCHEM_BASIC_PKA>
5.29

> <JCHEM_PHYSIOLOGICAL_CHARGE>
-3

> <ALOGPS_LOGP>
-1.3

> <JCHEM_LOGP>
-9.1

> <ALOGPS_LOGS>
-2.2

> <JCHEM_POLARIZABILITY>
61.71

> <JCHEM_POLAR_SURFACE_AREA>
387.44

> <JCHEM_REFRACTIVITY>
155.23

> <JCHEM_ROTATABLE_BOND_COUNT>
12

> <ALOGPS_SOLUBILITY>
4.39e+00 g/l __ 

$$$$
