WSK
  Mrv0541 02241214172D          

 23 25  0  0  0  0            999 V2000
    2.2223   -2.5296    0.0000 C    0  0  0  0  0  0  0  0  0  0  0  0
    1.6262   -0.1399    0.0000 N    0  0  0  0  0  0  0  0  0  0  0  0
    0.1973   -0.9649    0.0000 O    0  0  0  0  0  0  0  0  0  0  0  0
    1.4154   -2.3581    0.0000 C    0  0  0  0  0  0  0  0  0  0  0  0
   -1.2317   -0.1399    0.0000 N    0  0  0  0  0  0  0  0  0  0  0  0
    1.1604   -1.5735    0.0000 C    0  0  0  0  0  0  0  0  0  0  0  0
    1.7125   -0.9604    0.0000 C    0  0  0  0  0  0  0  0  0  0  0  0
    2.5194   -1.1319    0.0000 C    0  0  0  0  0  0  0  0  0  0  0  0
    2.7744   -1.9165    0.0000 C    0  0  0  0  0  0  0  0  0  0  0  0
    2.9319   -0.4175    0.0000 C    0  0  0  0  0  0  0  0  0  0  0  0
    2.3799    0.1956    0.0000 C    0  0  0  0  0  0  0  0  0  0  0  0
    2.6348    0.9803    0.0000 C    0  0  0  0  0  0  0  0  0  0  0  0
    3.4418    1.1518    0.0000 C    0  0  0  0  0  0  0  0  0  0  0  0
    3.9938    0.5387    0.0000 C    0  0  0  0  0  0  0  0  0  0  0  0
    3.7389   -0.2459    0.0000 C    0  0  0  0  0  0  0  0  0  0  0  0
    0.9117    0.2726    0.0000 C    0  0  0  0  0  0  0  0  0  0  0  0
    0.1973   -0.1399    0.0000 C    0  0  2  0  0  0  0  0  0  0  0  0
   -0.5172    0.2726    0.0000 C    0  0  0  0  0  0  0  0  0  0  0  0
   -1.9461    0.2726    0.0000 C    0  0  0  0  0  0  0  0  0  0  0  0
   -1.2317   -0.9649    0.0000 C    0  0  0  0  0  0  0  0  0  0  0  0
    4.8008    0.7102    0.0000 Br   0  0  0  0  0  0  0  0  0  0  0  0
    2.4773   -3.3143    0.0000 Br   0  0  0  0  0  0  0  0  0  0  0  0
    0.7030   -0.4319    0.0000 H    0  0  0  0  0  0  0  0  0  0  0  0
  1  4  2  0  0  0  0
  1  9  1  0  0  0  0
  1 22  1  0  0  0  0
  2  7  1  0  0  0  0
  2 11  1  0  0  0  0
  2 16  1  0  0  0  0
 17  3  1  1  0  0  0
  4  6  1  0  0  0  0
  5 18  1  0  0  0  0
  5 19  1  0  0  0  0
  5 20  1  0  0  0  0
  6  7  2  0  0  0  0
  7  8  1  0  0  0  0
  8  9  2  0  0  0  0
  8 10  1  0  0  0  0
 10 11  2  0  0  0  0
 10 15  1  0  0  0  0
 11 12  1  0  0  0  0
 12 13  2  0  0  0  0
 13 14  1  0  0  0  0
 14 15  2  0  0  0  0
 14 21  1  0  0  0  0
 16 17  1  0  0  0  0
 17 18  1  0  0  0  0
 17 23  1  6  0  0  0
M  END
> <DRUGBANK_ID>
DB01731

> <DRUG_GROUPS>
experimental

> <GENERIC_NAME>
(S)-Wiskostatin

> <CHEMICAL_FORMULA>
C17H18Br2N2O

> <MOLECULAR_WEIGHT>
426.146

> <EXACT_MASS>
423.978588502

> <IUPAC_NAME>
(2S)-1-(3,6-dibromo-9H-carbazol-9-yl)-3-(dimethylamino)propan-2-ol

> <IUPAC_TRADITIONAL_NAME>
(S)-wiskostatin

> <INCHI_IDENTIFIER>
InChI=1S/C17H18Br2N2O/c1-20(2)9-13(22)10-21-16-5-3-11(18)7-14(16)15-8-12(19)4-6-17(15)21/h3-8,13,22H,9-10H2,1-2H3/t13-/m0/s1

> <INCHI_KEY>
InChIKey=XUBJEDZHBUPBKL-ZDUSSCGKSA-N

> <SMILES>
[H][C@](O)(CN(C)C)CN1C2=CC=C(Br)C=C2C2=C1C=CC(Br)=C2

> <JCHEM_ACCEPTOR_COUNT>
2

> <JCHEM_DONOR_COUNT>
1

> <JCHEM_ACIDIC_PKA>
14.43

> <JCHEM_BASIC_PKA>
9.09

> <JCHEM_PHYSIOLOGICAL_CHARGE>
1

> <ALOGPS_LOGP>
4.17

> <JCHEM_LOGP>
4.24

> <ALOGPS_LOGS>
-4.4

> <JCHEM_POLARIZABILITY>
38.44

> <JCHEM_POLAR_SURFACE_AREA>
28.4

> <JCHEM_REFRACTIVITY>
97.6

> <JCHEM_ROTATABLE_BOND_COUNT>
4

> <ALOGPS_SOLUBILITY>
1.62e-02 g/l __ 

$$$$
