
  Mrv0541 02231215522D          

 52 55  0  0  1  0            999 V2000
   -0.5831  -13.0343    0.0000 C   0  0  0  0  0  0  0  0  0  0  0  0
   -0.7464  -12.2257    0.0000 O   0  0  0  0  0  0  0  0  0  0  0  0
   -0.1277  -11.6799    0.0000 C   0  0  0  0  0  0  0  0  0  0  0  0
    0.6543  -11.9429    0.0000 O   0  0  0  0  0  0  0  0  0  0  0  0
   -0.2909  -10.8712    0.0000 C   0  0  2  0  0  0  0  0  0  0  0  0
   -1.0411  -10.5280    0.0000 C   0  0  0  0  0  0  0  0  0  0  0  0
   -0.9465   -9.7084    0.0000 C   0  0  0  0  0  0  0  0  0  0  0  0
   -0.1378   -9.5452    0.0000 C   0  0  0  0  0  0  0  0  0  0  0  0
    0.2674  -10.2638    0.0000 N   0  0  0  0  0  0  0  0  0  0  0  0
    1.0869  -10.3585    0.0000 C   0  0  0  0  0  0  0  0  0  0  0  0
    1.4147  -11.1155    0.0000 O   0  0  0  0  0  0  0  0  0  0  0  0
    1.5787   -9.6960    0.0000 C   0  0  2  0  0  0  0  0  0  0  0  0
    1.2508   -8.9390    0.0000 C   0  0  0  0  0  0  0  0  0  0  0  0
    2.3982   -9.7907    0.0000 N   0  0  0  0  0  0  0  0  0  0  0  0
    2.8899   -9.1282    0.0000 P   0  0  2  0  0  0  0  0  0  0  0  0
    2.2275   -8.6365    0.0000 O   0  0  0  0  0  0  0  0  0  0  0  0
    3.5524   -9.6200    0.0000 O   0  0  0  0  0  0  0  0  0  0  0  0
    3.3817   -8.4658    0.0000 C   0  0  1  0  0  0  0  0  0  0  0  0
    3.0539   -7.7087    0.0000 C   0  0  0  0  0  0  0  0  0  0  0  0
    2.2343   -7.6141    0.0000 C   0  0  0  0  0  0  0  0  0  0  0  0
    1.7426   -8.2765    0.0000 C   0  0  0  0  0  0  0  0  0  0  0  0
    0.9230   -8.1819    0.0000 C   0  0  0  0  0  0  0  0  0  0  0  0
    0.5952   -7.4248    0.0000 C   0  0  0  0  0  0  0  0  0  0  0  0
    1.0869   -6.7624    0.0000 C   0  0  0  0  0  0  0  0  0  0  0  0
    1.9065   -6.8570    0.0000 C   0  0  0  0  0  0  0  0  0  0  0  0
    4.2012   -8.5604    0.0000 N   0  0  0  0  0  0  0  0  0  0  0  0
    4.6930   -7.8980    0.0000 C   0  0  0  0  0  0  0  0  0  0  0  0
    4.3651   -7.1409    0.0000 O   0  0  0  0  0  0  0  0  0  0  0  0
    5.5125   -7.9926    0.0000 C   0  0  1  0  0  0  0  0  0  0  0  0
    5.8403   -8.7497    0.0000 C   0  0  0  0  0  0  0  0  0  0  0  0
    6.6599   -8.8443    0.0000 C   0  0  0  0  0  0  0  0  0  0  0  0
    6.9877   -9.6014    0.0000 C   0  0  0  0  0  0  0  0  0  0  0  0
    7.8073   -9.6960    0.0000 C   0  0  0  0  0  0  0  0  0  0  0  0
    8.1351  -10.4531    0.0000 N   0  3  0  0  0  0  0  0  0  0  0  0
    6.0043   -7.3302    0.0000 N   0  0  0  0  0  0  0  0  0  0  0  0
    6.8238   -7.4248    0.0000 C   0  0  0  0  0  0  0  0  0  0  0  0
    7.1516   -8.1819    0.0000 O   0  0  0  0  0  0  0  0  0  0  0  0
    7.3155   -6.7624    0.0000 C   0  0  2  0  0  0  0  0  0  0  0  0
    7.0686   -5.9752    0.0000 C   0  0  0  0  0  0  0  0  0  0  0  0
    7.7410   -5.4971    0.0000 C   0  0  0  0  0  0  0  0  0  0  0  0
    8.4035   -5.9889    0.0000 C   0  0  0  0  0  0  0  0  0  0  0  0
    8.1405   -6.7708    0.0000 N   0  0  0  0  0  0  0  0  0  0  0  0
    8.6186   -7.4432    0.0000 C   0  0  0  0  0  0  0  0  0  0  0  0
    8.2753   -8.1934    0.0000 O   0  0  0  0  0  0  0  0  0  0  0  0
    9.4399   -7.3654    0.0000 O   0  0  0  0  0  0  0  0  0  0  0  0
    9.9179   -8.0377    0.0000 C   0  0  0  0  0  0  0  0  0  0  0  0
   10.7393   -7.9599    0.0000 C   0  0  0  0  0  0  0  0  0  0  0  0
   11.0825   -7.2097    0.0000 C   0  0  0  0  0  0  0  0  0  0  0  0
   11.9038   -7.1319    0.0000 C   0  0  0  0  0  0  0  0  0  0  0  0
   12.3819   -7.8043    0.0000 C   0  0  0  0  0  0  0  0  0  0  0  0
   12.0386   -8.5545    0.0000 C   0  0  0  0  0  0  0  0  0  0  0  0
   11.2173   -8.6323    0.0000 C   0  0  0  0  0  0  0  0  0  0  0  0
  1  2  1  0  0  0  0
  2  3  1  0  0  0  0
  3  4  2  0  0  0  0
  5  3  1  6  0  0  0
  5  6  1  0  0  0  0
  6  7  1  0  0  0  0
  7  8  1  0  0  0  0
  8  9  1  0  0  0  0
  5  9  1  0  0  0  0
  9 10  1  0  0  0  0
 10 11  2  0  0  0  0
 10 12  1  0  0  0  0
 12 13  1  6  0  0  0
 12 14  1  0  0  0  0
 15 14  1  1  0  0  0
 15 16  1  6  0  0  0
 15 17  2  0  0  0  0
 15 18  1  0  0  0  0
 18 19  1  0  0  0  0
 19 20  1  0  0  0  0
 20 21  2  0  0  0  0
 21 22  1  0  0  0  0
 22 23  2  0  0  0  0
 23 24  1  0  0  0  0
 24 25  2  0  0  0  0
 20 25  1  0  0  0  0
 18 26  1  1  0  0  0
 26 27  1  0  0  0  0
 27 28  2  0  0  0  0
 27 29  1  0  0  0  0
 29 30  1  0  0  0  0
 30 31  1  0  0  0  0
 31 32  1  0  0  0  0
 32 33  1  0  0  0  0
 33 34  1  0  0  0  0
 29 35  1  6  0  0  0
 35 36  1  0  0  0  0
 36 37  2  0  0  0  0
 38 36  1  6  0  0  0
 38 39  1  0  0  0  0
 39 40  1  0  0  0  0
 40 41  1  0  0  0  0
 41 42  1  0  0  0  0
 38 42  1  0  0  0  0
 42 43  1  0  0  0  0
 43 44  2  0  0  0  0
 43 45  1  0  0  0  0
 45 46  1  0  0  0  0
 46 47  1  0  0  0  0
 47 48  2  0  0  0  0
 48 49  1  0  0  0  0
 49 50  2  0  0  0  0
 50 51  1  0  0  0  0
 51 52  2  0  0  0  0
 47 52  1  0  0  0  0
M  END
> <DRUGBANK_ID>
DB01989

> <DRUG_GROUPS>
experimental

> <GENERIC_NAME>
Carbobenzoxy-Pro-Lys-Phe-Y(Po2)-Ala-Pro-Ome

> <CHEMICAL_FORMULA>
C36H52N6O9P

> <MOLECULAR_WEIGHT>
743.8066

> <EXACT_MASS>
743.353338804

> <IUPAC_NAME>
[(1S)-1-[(2R)-6-azaniumyl-2-{[(2S)-1-[(benzyloxy)carbonyl]pyrrolidin-2-yl]formamido}hexanamido]-2-phenylethyl]({[(2S)-1-[(2S)-2-(methoxycarbonyl)pyrrolidin-1-yl]-1-oxopropan-2-yl]amino})phosphinic acid

> <IUPAC_TRADITIONAL_NAME>
(1S)-1-[(2R)-6-aminio-2-{[(2S)-1-[(benzyloxy)carbonyl]pyrrolidin-2-yl]formamido}hexanamido]-2-phenylethyl[(2S)-1-[(2S)-2-(methoxycarbonyl)pyrrolidin-1-yl]-1-oxopropan-2-yl]aminophosphinic acid

> <INCHI_IDENTIFIER>
InChI=1S/C36H51N6O9P/c1-25(34(45)41-21-12-19-30(41)35(46)50-2)40-52(48,49)31(23-26-13-5-3-6-14-26)39-32(43)28(17-9-10-20-37)38-33(44)29-18-11-22-42(29)36(47)51-24-27-15-7-4-8-16-27/h3-8,13-16,25,28-31H,9-12,17-24,37H2,1-2H3,(H,38,44)(H,39,43)(H2,40,48,49)/p+1/t25-,28+,29-,30-,31-/m0/s1

> <INCHI_KEY>
InChIKey=JVJRALIDWYDPLY-RJHOZCNWSA-O

> <SMILES>
COC(=O)[C@@H]1CCCN1C(=O)[C@H](C)N[P@](O)(=O)[C@@H](CC1=CC=CC=C1)NC(=O)[C@@H](CCCC[NH3+])NC(=O)[C@@H]1CCCN1C(=O)OCC1=CC=CC=C1

> <JCHEM_ACCEPTOR_COUNT>
7

> <JCHEM_DONOR_COUNT>
5

> <JCHEM_ACIDIC_PKA>
3.02

> <JCHEM_BASIC_PKA>
10.2

> <JCHEM_PHYSIOLOGICAL_CHARGE>
0

> <ALOGPS_LOGP>
0.07

> <JCHEM_LOGP>
0.095

> <ALOGPS_LOGS>
-5.5

> <JCHEM_POLARIZABILITY>
75.58

> <JCHEM_POLAR_SURFACE_AREA>
211.32

> <JCHEM_REFRACTIVITY>
203.14

> <JCHEM_ROTATABLE_BOND_COUNT>
19

> <ALOGPS_SOLUBILITY>
2.78e-03 g/l __ 

$$$$
