1527
  Mrv0541 02231215322D          

 12 12  0  0  0  0            999 V2000
    1.6500   -0.2558    0.0000 Cl   0  0  0  0  0  0  0  0  0  0  0  0
    4.5080    1.3943    0.0000 N    0  0  0  0  0  0  0  0  0  0  0  0
    3.7935    0.9818    0.0000 C    0  0  0  0  0  0  0  0  0  0  0  0
    3.0791    0.5693    0.0000 C    0  0  0  0  0  0  0  0  0  0  0  0
    3.3810    1.6962    0.0000 C    0  0  0  0  0  0  0  0  0  0  0  0
    4.2060    0.2673    0.0000 C    0  0  0  0  0  0  0  0  0  0  0  0
    3.0791   -0.2558    0.0000 C    0  0  0  0  0  0  0  0  0  0  0  0
    2.3645   -0.6683    0.0000 C    0  0  0  0  0  0  0  0  0  0  0  0
    3.7935   -0.6683    0.0000 C    0  0  0  0  0  0  0  0  0  0  0  0
    2.3645   -1.4933    0.0000 C    0  0  0  0  0  0  0  0  0  0  0  0
    3.7935   -1.4933    0.0000 C    0  0  0  0  0  0  0  0  0  0  0  0
    3.0791   -1.9058    0.0000 C    0  0  0  0  0  0  0  0  0  0  0  0
  1  8  1  0  0  0  0
  2  3  1  0  0  0  0
  3  4  1  0  0  0  0
  3  5  1  0  0  0  0
  3  6  1  0  0  0  0
  4  7  1  0  0  0  0
  7  8  1  0  0  0  0
  7  9  2  0  0  0  0
  8 10  2  0  0  0  0
  9 11  1  0  0  0  0
 10 12  1  0  0  0  0
 11 12  2  0  0  0  0
M  END
> <DRUGBANK_ID>
DB01527

> <DRUG_GROUPS>
experimental; illicit

> <GENERIC_NAME>
Clortermine

> <CHEMICAL_FORMULA>
C10H14ClN

> <MOLECULAR_WEIGHT>
183.678

> <EXACT_MASS>
183.08147716

> <IUPAC_NAME>
1-(2-chlorophenyl)-2-methylpropan-2-amine

> <IUPAC_TRADITIONAL_NAME>
clortermine

> <INCHI_IDENTIFIER>
InChI=1S/C10H14ClN/c1-10(2,12)7-8-5-3-4-6-9(8)11/h3-6H,7,12H2,1-2H3

> <INCHI_KEY>
InChIKey=HXCXASJHZQXCKK-UHFFFAOYSA-N

> <SMILES>
CC(C)(N)CC1=CC=CC=C1Cl

> <JCHEM_ACCEPTOR_COUNT>
1

> <JCHEM_DONOR_COUNT>
1

> <JCHEM_BASIC_PKA>
10.16

> <JCHEM_PHYSIOLOGICAL_CHARGE>
1

> <ALOGPS_LOGP>
2.67

> <JCHEM_LOGP>
2.69

> <ALOGPS_LOGS>
-3.2

> <JCHEM_POLARIZABILITY>
19.86

> <JCHEM_POLAR_SURFACE_AREA>
26.02

> <JCHEM_REFRACTIVITY>
53.15

> <JCHEM_ROTATABLE_BOND_COUNT>
2

> <ALOGPS_SOLUBILITY>
1.04e-01 g/l __ 

$$$$
