
  Mrv0541 02231215412D          

 13 13  0  0  0  0            999 V2000
    4.0306    0.0352    0.0000 C    0  0  0  0  0  0  0  0  0  0  0  0
    3.4175    0.5872    0.0000 C    0  0  0  0  0  0  0  0  0  0  0  0
    2.6329    0.3323    0.0000 C    0  0  0  0  0  0  0  0  0  0  0  0
    2.0198    0.8843    0.0000 C    0  0  0  0  0  0  0  0  0  0  0  0
    1.2352    0.6294    0.0000 C    0  0  0  0  0  0  0  0  0  0  0  0
    0.9803   -0.1553    0.0000 N    0  0  0  0  0  0  0  0  0  0  0  0
    0.1553   -0.1553    0.0000 C    0  0  0  0  0  0  0  0  0  0  0  0
   -0.3297   -0.8227    0.0000 N    0  0  0  0  0  0  0  0  0  0  0  0
   -0.0997    0.6294    0.0000 Se   0  0  0  0  0  0  0  0  0  0  0  0
    0.5678    1.1143    0.0000 C    0  0  0  0  0  0  0  0  0  0  0  0
    0.5678    1.9393    0.0000 C    0  0  0  0  0  0  0  0  0  0  0  0
   -0.1467    2.3518    0.0000 C    0  0  0  0  0  0  0  0  0  0  0  0
   -0.8612    1.9393    0.0000 C    0  0  0  0  0  0  0  0  0  0  0  0
  1  2  1  0  0  0  0
  2  3  1  0  0  0  0
  3  4  1  0  0  0  0
  4  5  1  0  0  0  0
  5  6  2  0  0  0  0
  6  7  1  0  0  0  0
  7  8  1  0  0  0  0
  7  9  2  0  0  0  0
  9 10  2  0  0  0  0
  5 10  1  0  0  0  0
 10 11  1  0  0  0  0
 11 12  1  0  0  0  0
 12 13  1  0  0  0  0
M  END
> <DRUGBANK_ID>
DB01740

> <DRUG_GROUPS>
experimental

> <GENERIC_NAME>
2-Amino-4-Butyl-5-Propylselenazole

> <CHEMICAL_FORMULA>
C10H18N2Se

> <MOLECULAR_WEIGHT>
245.22

> <EXACT_MASS>
246.063520414

> <IUPAC_NAME>
4-butyl-5-propyl-1$l^{4},3-selenazol-2-amine

> <IUPAC_TRADITIONAL_NAME>
4-butyl-5-propyl-1$l^{4},3-selenazol-2-amine

> <INCHI_IDENTIFIER>
InChI=1S/C10H18N2Se/c1-3-5-7-8-9(6-4-2)13-10(11)12-8/h3-7,11H2,1-2H3

> <INCHI_KEY>
InChIKey=NRAIMIFVIWEEAR-UHFFFAOYSA-N

> <SMILES>
CCCCC1=NC(N)=[Se]=C1CCC

> <JCHEM_ACCEPTOR_COUNT>
2

> <JCHEM_DONOR_COUNT>
1

> <JCHEM_ACIDIC_PKA>
17.41

> <JCHEM_BASIC_PKA>
2.61

> <JCHEM_PHYSIOLOGICAL_CHARGE>
0

> <ALOGPS_LOGP>
2.52

> <JCHEM_LOGP>
4.22

> <ALOGPS_LOGS>
-2.1

> <JCHEM_POLARIZABILITY>
22.83

> <JCHEM_POLAR_SURFACE_AREA>
38.38

> <JCHEM_REFRACTIVITY>
65.25

> <JCHEM_ROTATABLE_BOND_COUNT>
5

> <ALOGPS_SOLUBILITY>
1.84e+00 g/l __ 

$$$$
