
  Mrv0541 11221308162D          

 30 32  0  0  0  0            999 V2000
    4.8848    3.3294    0.0000 F   0  0  0  0  0  0  0  0  0  0  0  0
    6.8162   -0.4714    0.0000 O   0  0  0  0  0  0  0  0  0  0  0  0
    8.0536   -1.1859    0.0000 O   0  0  0  0  0  0  0  0  0  0  0  0
    9.2913   -3.3294    0.0000 O   0  0  0  0  0  0  0  0  0  0  0  0
    9.2913   -1.9003    0.0000 O   0  0  0  0  0  0  0  0  0  0  0  0
    3.8597   -1.1353    0.0000 N   0  0  0  0  0  0  0  0  0  0  0  0
    4.1159   -1.9195    0.0000 C   0  0  0  0  0  0  0  0  0  0  0  0
    4.3412   -0.4714    0.0000 C   0  0  0  0  0  0  0  0  0  0  0  0
    3.0791   -0.8839    0.0000 C   0  0  0  0  0  0  0  0  0  0  0  0
    3.8597    0.1926    0.0000 C   0  0  0  0  0  0  0  0  0  0  0  0
    3.0791   -0.0589    0.0000 C   0  0  0  0  0  0  0  0  0  0  0  0
    5.1662   -0.4714    0.0000 C   0  0  0  0  0  0  0  0  0  0  0  0
    3.5650   -2.5335    0.0000 C   0  0  0  0  0  0  0  0  0  0  0  0
    4.9231   -2.0896    0.0000 C   0  0  0  0  0  0  0  0  0  0  0  0
    4.1159    0.9767    0.0000 C   0  0  0  0  0  0  0  0  0  0  0  0
    2.3645   -1.2964    0.0000 C   0  0  0  0  0  0  0  0  0  0  0  0
    2.3645    0.3536    0.0000 C   0  0  0  0  0  0  0  0  0  0  0  0
    6.4036   -1.1859    0.0000 C   0  0  1  0  0  0  0  0  0  0  0  0
    6.8162   -1.9003    0.0000 C   0  0  0  0  0  0  0  0  0  0  0  0
    5.5787   -1.1859    0.0000 C   0  0  0  0  0  0  0  0  0  0  0  0
    7.6412   -1.9003    0.0000 C   0  0  2  0  0  0  0  0  0  0  0  0
    1.6500   -0.8839    0.0000 C   0  0  0  0  0  0  0  0  0  0  0  0
    1.6500   -0.0589    0.0000 C   0  0  0  0  0  0  0  0  0  0  0  0
    3.5650    1.5908    0.0000 C   0  0  0  0  0  0  0  0  0  0  0  0
    4.9231    1.1469    0.0000 C   0  0  0  0  0  0  0  0  0  0  0  0
    8.0536   -2.6147    0.0000 C   0  0  0  0  0  0  0  0  0  0  0  0
    3.8213    2.3750    0.0000 C   0  0  0  0  0  0  0  0  0  0  0  0
    5.1795    1.9310    0.0000 C   0  0  0  0  0  0  0  0  0  0  0  0
    4.6285    2.5451    0.0000 C   0  0  0  0  0  0  0  0  0  0  0  0
    8.8788   -2.6147    0.0000 C   0  0  0  0  0  0  0  0  0  0  0  0
  1 29  1  0  0  0  0
 18  2  1  1  0  0  0
 21  3  1  1  0  0  0
  4 30  1  0  0  0  0
  5 30  2  0  0  0  0
  6  7  1  0  0  0  0
  6  8  1  0  0  0  0
  6  9  1  0  0  0  0
  7 13  1  0  0  0  0
  7 14  1  0  0  0  0
  8 10  2  0  0  0  0
  8 12  1  0  0  0  0
  9 11  1  0  0  0  0
  9 16  2  0  0  0  0
 10 11  1  0  0  0  0
 10 15  1  0  0  0  0
 11 17  2  0  0  0  0
 12 20  2  0  0  0  0
 15 24  2  0  0  0  0
 15 25  1  0  0  0  0
 16 22  1  0  0  0  0
 17 23  1  0  0  0  0
 18 19  1  0  0  0  0
 18 20  1  0  0  0  0
 19 21  1  0  0  0  0
 21 26  1  0  0  0  0
 22 23  2  0  0  0  0
 24 27  1  0  0  0  0
 25 28  2  0  0  0  0
 26 30  1  0  0  0  0
 27 29  2  0  0  0  0
 28 29  1  0  0  0  0
M  END
> <DRUGBANK_ID>
DB01095

> <DRUG_GROUPS>
approved

> <GENERIC_NAME>
Fluvastatin

> <SALTS>
Fluvastatin Sodium 

> <BRANDS>
Canef; Cranoc; Lescol; Lescol XL

> <CHEMICAL_FORMULA>
C24H26FNO4

> <MOLECULAR_WEIGHT>
411.4659

> <EXACT_MASS>
411.18458653

> <IUPAC_NAME>
(3R,5S,6E)-7-[3-(4-fluorophenyl)-1-(propan-2-yl)-1H-indol-2-yl]-3,5-dihydroxyhept-6-enoic acid

> <IUPAC_TRADITIONAL_NAME>
(3R,5S)-fluvastatin

> <INCHI_IDENTIFIER>
InChI=1/C24H26FNO4/c1-15(2)26-21-6-4-3-5-20(21)24(16-7-9-17(25)10-8-16)22(26)12-11-18(27)13-19(28)14-23(29)30/h3-12,15,18-19,27-28H,13-14H2,1-2H3,(H,29,30)/b12-11+/t18-,19-/s2

> <INCHI_KEY>
InChIKey=FJLGEFLZQAZZCD-NDDZYTDBNA-N

> <SMILES>
CC(C)N1C(\C=C\[C@@H](O)C[C@@H](O)CC(O)=O)=C(C2=CC=CC=C12)C1=CC=C(F)C=C1

> <JCHEM_ACCEPTOR_COUNT>
4

> <JCHEM_DONOR_COUNT>
3

> <JCHEM_ACIDIC_PKA>
4.56

> <JCHEM_BASIC_PKA>
-2.8

> <JCHEM_PHYSIOLOGICAL_CHARGE>
-1

> <ALOGPS_LOGP>
3.69

> <JCHEM_LOGP>
3.83

> <ALOGPS_LOGS>
-5

> <JCHEM_POLARIZABILITY>
43.9

> <JCHEM_POLAR_SURFACE_AREA>
82.69

> <JCHEM_REFRACTIVITY>
114.86

> <JCHEM_ROTATABLE_BOND_COUNT>
8

> <ALOGPS_SOLUBILITY>
4.41e-03 g/l __ 

$$$$
