1495
  Mrv0541 02231215312D          

 28 27  0  0  1  0            999 V2000
    5.7656    6.9874    0.0000 Cl   0  0  0  0  0  0  0  0  0  0  0  0
    4.9405    8.4164    0.0000 Cl   0  0  0  0  0  0  0  0  0  0  0  0
    4.6386    7.2894    0.0000 Cl   0  0  0  0  0  0  0  0  0  0  0  0
    1.1270    3.4937    0.0000 Cl   0  0  0  0  0  0  0  0  0  0  0  0
    0.3020    4.9227    0.0000 Cl   0  0  0  0  0  0  0  0  0  0  0  0
    0.0000    3.7957    0.0000 Cl   0  0  0  0  0  0  0  0  0  0  0  0
    4.2365    3.2166    0.0000 O    0  0  0  0  0  0  0  0  0  0  0  0
    6.7821    7.7020    0.0000 O    0  0  0  0  0  0  0  0  0  0  0  0
    6.0676    8.9395    0.0000 O    0  0  0  0  0  0  0  0  0  0  0  0
    2.1435    4.2082    0.0000 O    0  0  0  0  0  0  0  0  0  0  0  0
    1.4290    5.4457    0.0000 O    0  0  0  0  0  0  0  0  0  0  0  0
    6.3560    3.4715    0.0000 N    0  0  0  0  0  0  0  0  0  0  0  0
    5.6886    2.9866    0.0000 N    0  0  0  0  0  0  0  0  0  0  0  0
    6.1011    4.2561    0.0000 C    0  0  0  0  0  0  0  0  0  0  0  0
    5.6886    2.1615    0.0000 C    0  0  0  0  0  0  0  0  0  0  0  0
    5.0211    3.4715    0.0000 C    0  0  0  0  0  0  0  0  0  0  0  0
    5.2761    4.2561    0.0000 C    0  0  0  0  0  0  0  0  0  0  0  0
    7.1407    3.2166    0.0000 C    0  0  0  0  0  0  0  0  0  0  0  0
    6.5860    4.9236    0.0000 C    0  0  0  0  0  0  0  0  0  0  0  0
    6.4030    1.7490    0.0000 C    0  0  0  0  0  0  0  0  0  0  0  0
    4.9741    1.7490    0.0000 C    0  0  0  0  0  0  0  0  0  0  0  0
    6.4030    0.9240    0.0000 C    0  0  0  0  0  0  0  0  0  0  0  0
    4.9741    0.9240    0.0000 C    0  0  0  0  0  0  0  0  0  0  0  0
    5.6886    0.5115    0.0000 C    0  0  0  0  0  0  0  0  0  0  0  0
    6.0676    8.1145    0.0000 C    0  0  0  0  0  0  0  0  0  0  0  0
    1.4290    4.6207    0.0000 C    0  0  0  0  0  0  0  0  0  0  0  0
    5.3530    7.7020    0.0000 C    0  0  0  0  0  0  0  0  0  0  0  0
    0.7145    4.2082    0.0000 C    0  0  0  0  0  0  0  0  0  0  0  0
  1 27  1  0  0  0  0
  2 27  1  0  0  0  0
  3 27  1  0  0  0  0
  4 28  1  0  0  0  0
  5 28  1  0  0  0  0
  6 28  1  0  0  0  0
  7 16  2  0  0  0  0
  8 25  1  0  0  0  0
  9 25  1  0  0  0  0
 10 26  1  0  0  0  0
 11 26  1  0  0  0  0
 12 13  1  0  0  0  0
 12 14  1  0  0  0  0
 12 18  1  0  0  0  0
 13 15  1  0  0  0  0
 13 16  1  0  0  0  0
 14 17  2  0  0  0  0
 14 19  1  0  0  0  0
 15 20  2  0  0  0  0
 15 21  1  0  0  0  0
 16 17  1  0  0  0  0
 20 22  1  0  0  0  0
 21 23  2  0  0  0  0
 22 24  2  0  0  0  0
 23 24  1  0  0  0  0
 25 27  1  0  0  0  0
 26 28  1  0  0  0  0
M  END
> <DRUGBANK_ID>
DB01495

> <DRUG_GROUPS>
experimental; illicit

> <GENERIC_NAME>
Dichloralphenazone

> <CHEMICAL_FORMULA>
C15H18Cl6N2O5

> <MOLECULAR_WEIGHT>
519.032

> <EXACT_MASS>
515.934687938

> <IUPAC_NAME>
1,5-dimethyl-2-phenyl-2,3-dihydro-1H-pyrazol-3-one; bis(2,2,2-trichloroethane-1,1-diol)

> <IUPAC_TRADITIONAL_NAME>
antipyrine dichloral hydrate

> <INCHI_IDENTIFIER>
InChI=1S/C11H12N2O.2C2H3Cl3O2/c1-9-8-11(14)13(12(9)2)10-6-4-3-5-7-10;2*3-2(4,5)1(6)7/h3-8H,1-2H3;2*1,6-7H

> <INCHI_KEY>
InChIKey=ATKXDQOHNICLQW-UHFFFAOYSA-N

> <SMILES>
OC(O)C(Cl)(Cl)Cl.OC(O)C(Cl)(Cl)Cl.CN1N(C(=O)C=C1C)C1=CC=CC=C1

> <JCHEM_ACCEPTOR_COUNT>
2

> <JCHEM_DONOR_COUNT>
0

> <JCHEM_BASIC_PKA>
0.37

> <JCHEM_PHYSIOLOGICAL_CHARGE>
0

> <JCHEM_LOGP>
1.22

> <JCHEM_POLARIZABILITY>
20.41

> <JCHEM_POLAR_SURFACE_AREA>
23.55

> <JCHEM_REFRACTIVITY>
56.42

> <JCHEM_ROTATABLE_BOND_COUNT>
3 __ 

$$$$
