1437
  Mrv0541 02231215292D          

 16 17  0  0  1  0            999 V2000
    1.6500    0.1658    0.0000 O   0  0  0  0  0  0  0  0  0  0  0  0
    3.0791   -2.3092    0.0000 O   0  0  0  0  0  0  0  0  0  0  0  0
    2.3645   -1.0717    0.0000 N   0  0  0  0  0  0  0  0  0  0  0  0
    3.0791    0.1658    0.0000 C   0  0  0  0  0  0  0  0  0  0  0  0
    3.7935   -0.2467    0.0000 C   0  0  0  0  0  0  0  0  0  0  0  0
    2.6665    0.8803    0.0000 C   0  0  0  0  0  0  0  0  0  0  0  0
    3.4916    0.8803    0.0000 C   0  0  0  0  0  0  0  0  0  0  0  0
    3.7935   -1.0717    0.0000 C   0  0  0  0  0  0  0  0  0  0  0  0
    2.3645   -0.2467    0.0000 C   0  0  0  0  0  0  0  0  0  0  0  0
    3.0791   -1.4842    0.0000 C   0  0  0  0  0  0  0  0  0  0  0  0
    1.8415    0.8803    0.0000 C   0  0  0  0  0  0  0  0  0  0  0  0
    3.0791    1.5948    0.0000 C   0  0  0  0  0  0  0  0  0  0  0  0
    4.3166    0.8803    0.0000 C   0  0  0  0  0  0  0  0  0  0  0  0
    3.4916    2.3092    0.0000 C   0  0  0  0  0  0  0  0  0  0  0  0
    4.7291    1.5948    0.0000 C   0  0  0  0  0  0  0  0  0  0  0  0
    4.3166    2.3092    0.0000 C   0  0  0  0  0  0  0  0  0  0  0  0
  1  9  2  0  0  0  0
  2 10  2  0  0  0  0
  3  9  1  0  0  0  0
  3 10  1  0  0  0  0
  4  5  1  0  0  0  0
  4  6  1  0  0  0  0
  4  7  1  0  0  0  0
  4  9  1  0  0  0  0
  5  8  1  0  0  0  0
  6 11  1  0  0  0  0
  7 12  2  0  0  0  0
  7 13  1  0  0  0  0
  8 10  1  0  0  0  0
 12 14  1  0  0  0  0
 13 15  2  0  0  0  0
 14 16  2  0  0  0  0
 15 16  1  0  0  0  0
M  END
> <DRUGBANK_ID>
DB01437

> <DRUG_GROUPS>
approved; illicit

> <GENERIC_NAME>
Glutethimide

> <BRANDS>
Doriden; Elrodorm; Glimid; Noxyron

> <CHEMICAL_FORMULA>
C13H15NO2

> <MOLECULAR_WEIGHT>
217.2637

> <EXACT_MASS>
217.110278729

> <IUPAC_NAME>
3-ethyl-3-phenylpiperidine-2,6-dione

> <IUPAC_TRADITIONAL_NAME>
glutethimide

> <INCHI_IDENTIFIER>
InChI=1S/C13H15NO2/c1-2-13(10-6-4-3-5-7-10)9-8-11(15)14-12(13)16/h3-7H,2,8-9H2,1H3,(H,14,15,16)

> <INCHI_KEY>
InChIKey=JMBQKKAJIKAWKF-UHFFFAOYSA-N

> <SMILES>
CCC1(CCC(=O)NC1=O)C1=CC=CC=C1

> <JCHEM_ACCEPTOR_COUNT>
2

> <JCHEM_DONOR_COUNT>
1

> <JCHEM_ACIDIC_PKA>
11.69

> <JCHEM_BASIC_PKA>
-6.7

> <JCHEM_PHYSIOLOGICAL_CHARGE>
0

> <ALOGPS_LOGP>
1.89

> <JCHEM_LOGP>
2.13

> <ALOGPS_LOGS>
-2.8

> <JCHEM_POLARIZABILITY>
23.15

> <JCHEM_POLAR_SURFACE_AREA>
46.17

> <JCHEM_REFRACTIVITY>
60.65

> <JCHEM_ROTATABLE_BOND_COUNT>
2

> <ALOGPS_SOLUBILITY>
3.27e-01 g/l __ 

$$$$
