ABI
  Mrv0541 02231215502D          

 12 13  0  0  0  0            999 V2000
    0.3102    0.0076    0.0000 C   0  0  0  0  0  0  0  0  0  0  0  0
    0.3102   -0.8174    0.0000 C   0  0  0  0  0  0  0  0  0  0  0  0
   -0.4043   -1.2299    0.0000 C   0  0  0  0  0  0  0  0  0  0  0  0
   -1.1187   -0.8174    0.0000 C   0  0  0  0  0  0  0  0  0  0  0  0
   -1.1187    0.0076    0.0000 C   0  0  0  0  0  0  0  0  0  0  0  0
   -0.4043    0.4201    0.0000 C   0  0  0  0  0  0  0  0  0  0  0  0
    1.0247    0.4201    0.0000 C   0  0  0  0  0  0  0  0  0  0  0  0
   -2.3883   -0.4049    0.0000 C   0  0  0  0  0  0  0  0  0  0  0  0
    1.0247    1.2451    0.0000 N   0  0  0  0  0  0  0  0  0  0  0  0
    1.7392    0.0076    0.0000 N   0  3  0  0  0  0  0  0  0  0  0  0
   -1.9033   -1.0723    0.0000 N   0  0  0  0  0  0  0  0  0  0  0  0
   -1.9033    0.2626    0.0000 N   0  0  0  0  0  0  0  0  0  0  0  0
  1  2  1  0  0  0  0
  1  6  2  0  0  0  0
  1  7  1  0  0  0  0
  2  3  2  0  0  0  0
  3  4  1  0  0  0  0
  4  5  2  0  0  0  0
  4 11  1  0  0  0  0
  5  6  1  0  0  0  0
  5 12  1  0  0  0  0
  7  9  1  0  0  0  0
  7 10  2  0  0  0  0
  8 11  2  0  0  0  0
  8 12  1  0  0  0  0
M  END
> <DRUGBANK_ID>
DB01939

> <DRUG_GROUPS>
experimental

> <GENERIC_NAME>
5-Amidino-Benzimidazole

> <CHEMICAL_FORMULA>
C8H9N4

> <MOLECULAR_WEIGHT>
161.1839

> <EXACT_MASS>
161.082721308

> <IUPAC_NAME>
[amino(1H-1,3-benzodiazol-6-yl)methylidene]azanium

> <IUPAC_TRADITIONAL_NAME>
[amino(3H-1,3-benzodiazol-5-yl)methylidene]azanium

> <INCHI_IDENTIFIER>
InChI=1S/C8H8N4/c9-8(10)5-1-2-6-7(3-5)12-4-11-6/h1-4H,(H3,9,10)(H,11,12)/p+1

> <INCHI_KEY>
InChIKey=UHGFPMUGEQINGV-UHFFFAOYSA-O

> <SMILES>
NC(=[NH2+])C1=CC2=C(C=C1)N=CN2

> <JCHEM_ACCEPTOR_COUNT>
2

> <JCHEM_DONOR_COUNT>
3

> <JCHEM_ACIDIC_PKA>
11.77

> <JCHEM_BASIC_PKA>
10.92

> <JCHEM_PHYSIOLOGICAL_CHARGE>
1

> <ALOGPS_LOGP>
-0.58

> <JCHEM_LOGP>
-0.19

> <ALOGPS_LOGS>
-2

> <JCHEM_POLARIZABILITY>
16.75

> <JCHEM_POLAR_SURFACE_AREA>
80.29

> <JCHEM_REFRACTIVITY>
57.44

> <JCHEM_ROTATABLE_BOND_COUNT>
1

> <ALOGPS_SOLUBILITY>
1.86e+00 g/l __ 

$$$$
