
  Mrv0541 02231215172D          

  7  6  0  0  1  0            999 V2000
    3.7935   -0.2615    0.0000 Br   0  0  0  0  0  0  0  0  0  0  0  0
    3.0790    0.9760    0.0000 Cl   0  0  0  0  0  0  0  0  0  0  0  0
    1.6500   -0.6740    0.0000 F    0  0  0  0  0  0  0  0  0  0  0  0
    1.9520    0.4529    0.0000 F    0  0  0  0  0  0  0  0  0  0  0  0
    2.7770   -0.9760    0.0000 F    0  0  0  0  0  0  0  0  0  0  0  0
    2.3645   -0.2615    0.0000 C    0  0  0  0  0  0  0  0  0  0  0  0
    3.0790    0.1510    0.0000 C    0  0  0  0  0  0  0  0  0  0  0  0
  1  7  1  0  0  0  0
  2  7  1  0  0  0  0
  3  6  1  0  0  0  0
  4  6  1  0  0  0  0
  5  6  1  0  0  0  0
  6  7  1  0  0  0  0
M  END
> <DRUGBANK_ID>
DB01159

> <DRUG_GROUPS>
approved

> <GENERIC_NAME>
Halothane

> <SYNONYMS>
2-Bromo-2-Chloro-1,1,1-Trifluoroethane; Bromochlorotrifluoroethane; Ftorotan; Halotano; Halothanum

> <BRANDS>
Fluothane; Halotan; Narcotan

> <CHEMICAL_FORMULA>
C2HBrClF3

> <MOLECULAR_WEIGHT>
197.382

> <EXACT_MASS>
195.890225001

> <IUPAC_NAME>
2-bromo-2-chloro-1,1,1-trifluoroethane

> <IUPAC_TRADITIONAL_NAME>
halothane

> <INCHI_IDENTIFIER>
InChI=1S/C2HBrClF3/c3-1(4)2(5,6)7/h1H

> <INCHI_KEY>
InChIKey=BCQZXOMGPXTTIC-UHFFFAOYSA-N

> <SMILES>
FC(F)(F)C(Cl)Br

> <JCHEM_ACCEPTOR_COUNT>
0

> <JCHEM_DONOR_COUNT>
0

> <JCHEM_PHYSIOLOGICAL_CHARGE>
0

> <ALOGPS_LOGP>
2.5

> <JCHEM_LOGP>
2.12

> <ALOGPS_LOGS>
-1.7

> <JCHEM_POLARIZABILITY>
9.78

> <JCHEM_POLAR_SURFACE_AREA>
0

> <JCHEM_REFRACTIVITY>
24.63

> <JCHEM_ROTATABLE_BOND_COUNT>
1

> <ALOGPS_SOLUBILITY>
3.81e+00 g/l __ 

$$$$
