
  Mrv0541 02231215532D          

 48 50  0  0  1  0            999 V2000
    1.5299    0.1063    0.0000 C   0  0  0  0  0  0  0  0  0  0  0  0
    1.8899    0.8486    0.0000 C   0  0  0  0  0  0  0  0  0  0  0  0
    2.2499    1.5909    0.0000 C   0  0  0  0  0  0  0  0  0  0  0  0
    1.1476    1.2086    0.0000 C   0  0  0  0  0  0  0  0  0  0  0  0
    0.4646    0.7457    0.0000 O   0  0  0  0  0  0  0  0  0  0  0  0
   -0.2777    1.1057    0.0000 P   0  0  2  0  0  0  0  0  0  0  0  0
   -0.6377    0.3634    0.0000 O   0  0  0  0  0  0  0  0  0  0  0  0
    0.0823    1.8481    0.0000 O   0  0  0  0  0  0  0  0  0  0  0  0
   -1.0200    1.4657    0.0000 O   0  0  0  0  0  0  0  0  0  0  0  0
   -1.7029    1.0029    0.0000 P   0  0  1  0  0  0  0  0  0  0  0  0
   -1.2400    0.3200    0.0000 O   0  0  0  0  0  0  0  0  0  0  0  0
   -2.1658    1.6858    0.0000 O   0  0  0  0  0  0  0  0  0  0  0  0
   -2.3858    0.5400    0.0000 O   0  0  0  0  0  0  0  0  0  0  0  0
   -3.1281    0.9000    0.0000 C   0  0  0  0  0  0  0  0  0  0  0  0
   -3.8111    0.4372    0.0000 C   0  0  2  0  0  0  0  0  0  0  0  0
   -3.8380   -0.3874    0.0000 O   0  0  0  0  0  0  0  0  0  0  0  0
   -4.6305   -0.6166    0.0000 C   0  0  2  0  0  0  0  0  0  0  0  0
   -5.0934    0.0664    0.0000 C   0  0  2  0  0  0  0  0  0  0  0  0
   -5.9180    0.0933    0.0000 O   0  0  0  0  0  0  0  0  0  0  0  0
   -4.5869    0.7176    0.0000 C   0  0  1  0  0  0  0  0  0  0  0  0
   -4.8161    1.5101    0.0000 O   0  0  0  0  0  0  0  0  0  0  0  0
   -4.2443    2.1049    0.0000 P   0  0  0  0  0  0  0  0  0  0  0  0
   -3.6496    1.5331    0.0000 O   0  0  0  0  0  0  0  0  0  0  0  0
   -4.8391    2.6766    0.0000 O   0  0  0  0  0  0  0  0  0  0  0  0
   -3.6726    2.6996    0.0000 O   0  0  0  0  0  0  0  0  0  0  0  0
   -4.9110   -1.3924    0.0000 N   0  0  0  0  0  0  0  0  0  0  0  0
   -5.7035   -1.6216    0.0000 C   0  0  0  0  0  0  0  0  0  0  0  0
   -5.7305   -2.4462    0.0000 N   0  0  0  0  0  0  0  0  0  0  0  0
   -4.9546   -2.7266    0.0000 C   0  0  0  0  0  0  0  0  0  0  0  0
   -4.4481   -2.0754    0.0000 C   0  0  0  0  0  0  0  0  0  0  0  0
   -3.6309   -2.1884    0.0000 N   0  0  0  0  0  0  0  0  0  0  0  0
   -3.3201   -2.9526    0.0000 C   0  0  0  0  0  0  0  0  0  0  0  0
   -3.8266   -3.6038    0.0000 N   0  0  0  0  0  0  0  0  0  0  0  0
   -4.6438   -3.4908    0.0000 C   0  0  0  0  0  0  0  0  0  0  0  0
   -5.1503   -4.1421    0.0000 N   0  0  0  0  0  0  0  0  0  0  0  0
    2.6322    0.4886    0.0000 C   0  0  1  0  0  0  0  0  0  0  0  0
    2.6916   -0.3343    0.0000 O   0  0  0  0  0  0  0  0  0  0  0  0
    3.3151    0.9515    0.0000 C   0  0  0  0  0  0  0  0  0  0  0  0
    3.2557    1.7743    0.0000 O   0  0  0  0  0  0  0  0  0  0  0  0
    4.0574    0.5915    0.0000 N   0  0  0  0  0  0  0  0  0  0  0  0
    4.7403    1.0543    0.0000 C   0  0  0  0  0  0  0  0  0  0  0  0
    5.4827    0.6943    0.0000 C   0  0  0  0  0  0  0  0  0  0  0  0
    6.1656    1.1572    0.0000 C   0  0  0  0  0  0  0  0  0  0  0  0
    6.1062    1.9800    0.0000 O   0  0  0  0  0  0  0  0  0  0  0  0
    6.9079    0.7972    0.0000 N   0  0  0  0  0  0  0  0  0  0  0  0
    7.5908    1.2600    0.0000 C   0  0  0  0  0  0  0  0  0  0  0  0
    8.3331    0.9000    0.0000 C   0  0  0  0  0  0  0  0  0  0  0  0
    9.0161    1.3629    0.0000 S   0  0  0  0  0  0  0  0  0  0  0  0
  1  2  1  0  0  0  0
  2  3  1  0  0  0  0
  2  4  1  0  0  0  0
  4  5  1  0  0  0  0
  6  5  1  1  0  0  0
  6  7  1  6  0  0  0
  6  8  2  0  0  0  0
  6  9  1  0  0  0  0
 10  9  1  6  0  0  0
 10 11  1  1  0  0  0
 10 12  2  0  0  0  0
 10 13  1  0  0  0  0
 13 14  1  0  0  0  0
 15 14  1  6  0  0  0
 15 16  1  0  0  0  0
 16 17  1  0  0  0  0
 17 18  1  0  0  0  0
 18 19  1  6  0  0  0
 18 20  1  0  0  0  0
 15 20  1  0  0  0  0
 20 21  1  1  0  0  0
 21 22  1  0  0  0  0
 22 23  1  0  0  0  0
 22 24  1  0  0  0  0
 22 25  2  0  0  0  0
 17 26  1  1  0  0  0
 26 27  1  0  0  0  0
 27 28  2  0  0  0  0
 28 29  1  0  0  0  0
 29 30  2  0  0  0  0
 26 30  1  0  0  0  0
 30 31  1  0  0  0  0
 31 32  2  0  0  0  0
 32 33  1  0  0  0  0
 33 34  2  0  0  0  0
 29 34  1  0  0  0  0
 34 35  1  0  0  0  0
  2 36  1  0  0  0  0
 36 37  1  6  0  0  0
 36 38  1  0  0  0  0
 38 39  2  0  0  0  0
 38 40  1  0  0  0  0
 40 41  1  0  0  0  0
 41 42  1  0  0  0  0
 42 43  1  0  0  0  0
 43 44  2  0  0  0  0
 43 45  1  0  0  0  0
 45 46  1  0  0  0  0
 46 47  1  0  0  0  0
 47 48  1  0  0  0  0
M  END
> <DRUGBANK_ID>
DB01992

> <DRUG_GROUPS>
nutraceutical

> <GENERIC_NAME>
Coenzyme A

> <SYNONYMS>
3'-phosphoadenosine-(5')diphospho(4')pantatheine; CoA; CoA-SH; CoASH; HSCoA

> <CHEMICAL_FORMULA>
C21H36N7O16P3S

> <MOLECULAR_WEIGHT>
767.534

> <EXACT_MASS>
767.115208365

> <IUPAC_NAME>
{[(2S,3R,4R,5R)-5-(6-amino-9H-purin-9-yl)-4-hydroxy-2-({[hydroxy({hydroxy[(3R)-3-hydroxy-2,2-dimethyl-3-({2-[(2-sulfanylethyl)carbamoyl]ethyl}carbamoyl)propoxy]phosphoryl}oxy)phosphoryl]oxy}methyl)oxolan-3-yl]oxy}phosphonic acid

> <IUPAC_TRADITIONAL_NAME>
[(2S,3R,4R,5R)-5-(6-aminopurin-9-yl)-4-hydroxy-2-[({hydroxy[hydroxy(3R)-3-hydroxy-2,2-dimethyl-3-({2-[(2-sulfanylethyl)carbamoyl]ethyl}carbamoyl)propoxyphosphoryl]oxyphosphoryl}oxy)methyl]oxolan-3-yl]oxyphosphonic acid

> <INCHI_IDENTIFIER>
InChI=1S/C21H36N7O16P3S/c1-21(2,16(31)19(32)24-4-3-12(29)23-5-6-48)8-41-47(38,39)44-46(36,37)40-7-11-15(43-45(33,34)35)14(30)20(42-11)28-10-27-13-17(22)25-9-26-18(13)28/h9-11,14-16,20,30-31,48H,3-8H2,1-2H3,(H,23,29)(H,24,32)(H,36,37)(H,38,39)(H2,22,25,26)(H2,33,34,35)/t11-,14+,15-,16-,20+/m0/s1

> <INCHI_KEY>
InChIKey=RGJOEKWQDUBAIZ-VPHNIEJBSA-N

> <SMILES>
CC(C)(CO[P@](O)(=O)O[P@@](O)(=O)OC[C@@H]1O[C@H]([C@H](O)[C@H]1OP(O)(O)=O)N1C=NC2=C1N=CN=C2N)[C@@H](O)C(=O)NCCC(=O)NCCS

> <JCHEM_ACCEPTOR_COUNT>
16

> <JCHEM_DONOR_COUNT>
10

> <JCHEM_ACIDIC_PKA>
0.83

> <JCHEM_BASIC_PKA>
4.95

> <JCHEM_PHYSIOLOGICAL_CHARGE>
-4

> <ALOGPS_LOGP>
-0.61

> <JCHEM_LOGP>
-6.8

> <ALOGPS_LOGS>
-2.2

> <JCHEM_POLARIZABILITY>
67.1

> <JCHEM_POLAR_SURFACE_AREA>
346.56

> <JCHEM_REFRACTIVITY>
162.74

> <JCHEM_ROTATABLE_BOND_COUNT>
18

> <ALOGPS_SOLUBILITY>
4.64e+00 g/l __ 

$$$$
