1291
  Mrv0541 02231215222D          

 17 17  0  0  1  0            999 V2000
    4.5080   -1.3654    0.0000 O   0  0  0  0  0  0  0  0  0  0  0  0
    7.3659    1.1096    0.0000 O   0  0  0  0  0  0  0  0  0  0  0  0
    7.3659   -1.3654    0.0000 O   0  0  0  0  0  0  0  0  0  0  0  0
    3.0791   -0.5404    0.0000 N   0  0  0  0  0  0  0  0  0  0  0  0
    5.9370   -0.5404    0.0000 N   0  0  0  0  0  0  0  0  0  0  0  0
    2.3645   -0.1279    0.0000 C   0  0  0  0  0  0  0  0  0  0  0  0
    3.7935   -0.1279    0.0000 C   0  0  0  0  0  0  0  0  0  0  0  0
    4.5080   -0.5404    0.0000 C   0  0  0  0  0  0  0  0  0  0  0  0
    1.6500    0.2846    0.0000 C   0  0  0  0  0  0  0  0  0  0  0  0
    1.9520   -0.8423    0.0000 C   0  0  0  0  0  0  0  0  0  0  0  0
    2.7770    0.5866    0.0000 C   0  0  0  0  0  0  0  0  0  0  0  0
    5.2224   -0.1279    0.0000 C   0  0  0  0  0  0  0  0  0  0  0  0
    5.2224    0.6971    0.0000 C   0  0  0  0  0  0  0  0  0  0  0  0
    6.6515   -0.1279    0.0000 C   0  0  0  0  0  0  0  0  0  0  0  0
    5.9370    1.1096    0.0000 C   0  0  0  0  0  0  0  0  0  0  0  0
    6.6515    0.6971    0.0000 C   0  0  0  0  0  0  0  0  0  0  0  0
    7.3659   -0.5404    0.0000 C   0  0  0  0  0  0  0  0  0  0  0  0
  1  8  1  0  0  0  0
  2 16  1  0  0  0  0
  3 17  1  0  0  0  0
  4  6  1  0  0  0  0
  4  7  1  0  0  0  0
  5 12  2  0  0  0  0
  5 14  1  0  0  0  0
  6  9  1  0  0  0  0
  6 10  1  0  0  0  0
  6 11  1  0  0  0  0
  7  8  1  0  0  0  0
  8 12  1  0  0  0  0
 12 13  1  0  0  0  0
 13 15  2  0  0  0  0
 14 16  2  0  0  0  0
 14 17  1  0  0  0  0
 15 16  1  0  0  0  0
M  END
> <DRUGBANK_ID>
DB01291

> <DRUG_GROUPS>
approved

> <GENERIC_NAME>
Pirbuterol

> <SYNONYMS>
Pirbuterolum

> <SALTS>
Pirbuterol acetate; Pirbuterol hydrochloride

> <BRANDS>


> <CHEMICAL_FORMULA>
C12H20N2O3

> <MOLECULAR_WEIGHT>
240.2988

> <EXACT_MASS>
240.147392516

> <IUPAC_NAME>
6-[2-(tert-butylamino)-1-hydroxyethyl]-2-(hydroxymethyl)pyridin-3-ol

> <IUPAC_TRADITIONAL_NAME>
pirbuterol

> <INCHI_IDENTIFIER>
InChI=1S/C12H20N2O3/c1-12(2,3)13-6-11(17)8-4-5-10(16)9(7-15)14-8/h4-5,11,13,15-17H,6-7H2,1-3H3

> <INCHI_KEY>
InChIKey=VQDBNKDJNJQRDG-UHFFFAOYSA-N

> <SMILES>
CC(C)(C)NCC(O)C1=NC(CO)=C(O)C=C1

> <JCHEM_ACCEPTOR_COUNT>
5

> <JCHEM_DONOR_COUNT>
4

> <JCHEM_ACIDIC_PKA>
8.79

> <JCHEM_BASIC_PKA>
9.59

> <JCHEM_PHYSIOLOGICAL_CHARGE>
1

> <ALOGPS_LOGP>
0.38

> <JCHEM_LOGP>
-0.66

> <ALOGPS_LOGS>
-1.6

> <JCHEM_POLARIZABILITY>
26.31

> <JCHEM_POLAR_SURFACE_AREA>
85.61

> <JCHEM_REFRACTIVITY>
64.74

> <JCHEM_ROTATABLE_BOND_COUNT>
5

> <ALOGPS_SOLUBILITY>
6.22e+00 g/l __ 

$$$$
