1319
  Mrv0541 02231215222D          

 39 41  0  0  1  0            999 V2000
    3.7935   -1.1931    0.0000 S   0  0  0  0  0  0  0  0  0  0  0  0
    3.3810    1.9964    0.0000 P   0  0  0  0  0  0  0  0  0  0  0  0
    3.7935    1.2819    0.0000 O   0  0  0  0  0  0  0  0  0  0  0  0
    5.9370    3.3445    0.0000 O   0  0  0  0  0  0  0  0  0  0  0  0
    7.5447    4.7490    0.0000 O   0  0  0  0  0  0  0  0  0  0  0  0
    4.6185   -1.1931    0.0000 O   0  0  0  0  0  0  0  0  0  0  0  0
    2.9685   -1.1931    0.0000 O   0  0  0  0  0  0  0  0  0  0  0  0
    2.9685    2.7108    0.0000 O   0  0  0  0  0  0  0  0  0  0  0  0
    2.6665    1.5839    0.0000 O   0  0  0  0  0  0  0  0  0  0  0  0
    6.6515    2.1069    0.0000 O   0  0  0  0  0  0  0  0  0  0  0  0
    4.0955    2.4089    0.0000 O   0  0  0  0  0  0  0  0  0  0  0  0
    3.7935   -0.3681    0.0000 N   0  0  0  0  0  0  0  0  0  0  0  0
    5.2224    2.1069    0.0000 N   0  0  0  0  0  0  0  0  0  0  0  0
    3.7935   -4.4932    0.0000 N   0  0  0  0  0  0  0  0  0  0  0  0
    4.5080    0.8694    0.0000 C   0  0  1  0  0  0  0  0  0  0  0  0
    5.2224    1.2819    0.0000 C   0  0  2  0  0  0  0  0  0  0  0  0
    4.5080    0.0444    0.0000 C   0  0  0  0  0  0  0  0  0  0  0  0
    3.0791    0.0444    0.0000 C   0  0  0  0  0  0  0  0  0  0  0  0
    5.9370    0.8694    0.0000 C   0  0  0  0  0  0  0  0  0  0  0  0
    2.3645   -0.3681    0.0000 C   0  0  0  0  0  0  0  0  0  0  0  0
    5.9370    0.0444    0.0000 C   0  0  0  0  0  0  0  0  0  0  0  0
    6.6515    3.7570    0.0000 C   0  0  1  0  0  0  0  0  0  0  0  0
    3.7935   -2.0182    0.0000 C   0  0  0  0  0  0  0  0  0  0  0  0
    1.6500    0.0444    0.0000 C   0  0  0  0  0  0  0  0  0  0  0  0
    2.3645   -1.1931    0.0000 C   0  0  0  0  0  0  0  0  0  0  0  0
    7.4051    3.4214    0.0000 C   0  0  0  0  0  0  0  0  0  0  0  0
    5.9370    2.5194    0.0000 C   0  0  0  0  0  0  0  0  0  0  0  0
    6.7377    4.5774    0.0000 C   0  0  0  0  0  0  0  0  0  0  0  0
    7.9572    4.0345    0.0000 C   0  0  0  0  0  0  0  0  0  0  0  0
    5.2224   -0.3681    0.0000 C   0  0  0  0  0  0  0  0  0  0  0  0
    6.6515   -0.3681    0.0000 C   0  0  0  0  0  0  0  0  0  0  0  0
    3.0791   -2.4307    0.0000 C   0  0  0  0  0  0  0  0  0  0  0  0
    4.5080   -2.4307    0.0000 C   0  0  0  0  0  0  0  0  0  0  0  0
    5.2224   -1.1931    0.0000 C   0  0  0  0  0  0  0  0  0  0  0  0
    6.6515   -1.1931    0.0000 C   0  0  0  0  0  0  0  0  0  0  0  0
    3.0791   -3.2557    0.0000 C   0  0  0  0  0  0  0  0  0  0  0  0
    4.5080   -3.2557    0.0000 C   0  0  0  0  0  0  0  0  0  0  0  0
    5.9370   -1.6057    0.0000 C   0  0  0  0  0  0  0  0  0  0  0  0
    3.7935   -3.6682    0.0000 C   0  0  0  0  0  0  0  0  0  0  0  0
  1  6  2  0  0  0  0
  1  7  2  0  0  0  0
  1 12  1  0  0  0  0
  1 23  1  0  0  0  0
  2  3  1  0  0  0  0
  2  8  1  0  0  0  0
  2  9  1  0  0  0  0
  2 11  2  0  0  0  0
 15  3  1  1  0  0  0
 22  4  1  6  0  0  0
  4 27  1  0  0  0  0
  5 28  1  0  0  0  0
  5 29  1  0  0  0  0
 10 27  2  0  0  0  0
 12 17  1  0  0  0  0
 12 18  1  0  0  0  0
 16 13  1  1  0  0  0
 13 27  1  0  0  0  0
 14 39  1  0  0  0  0
 15 16  1  0  0  0  0
 15 17  1  0  0  0  0
 16 19  1  0  0  0  0
 18 20  1  0  0  0  0
 19 21  1  0  0  0  0
 20 24  1  0  0  0  0
 20 25  1  0  0  0  0
 21 30  2  0  0  0  0
 21 31  1  0  0  0  0
 22 26  1  0  0  0  0
 22 28  1  0  0  0  0
 23 32  2  0  0  0  0
 23 33  1  0  0  0  0
 26 29  1  0  0  0  0
 30 34  1  0  0  0  0
 31 35  2  0  0  0  0
 32 36  1  0  0  0  0
 33 37  2  0  0  0  0
 34 38  2  0  0  0  0
 35 38  1  0  0  0  0
 36 39  2  0  0  0  0
 37 39  1  0  0  0  0
M  END
> <DRUGBANK_ID>
DB01319

> <DRUG_GROUPS>
approved

> <GENERIC_NAME>
Fosamprenavir

> <BRANDS>


> <CHEMICAL_FORMULA>
C25H36N3O9PS

> <MOLECULAR_WEIGHT>
585.607

> <EXACT_MASS>
585.190986967

> <IUPAC_NAME>
{[(2R,3S)-1-[N-(2-methylpropyl)(4-aminobenzene)sulfonamido]-3-({[(3S)-oxolan-3-yloxy]carbonyl}amino)-4-phenylbutan-2-yl]oxy}phosphonic acid

> <IUPAC_TRADITIONAL_NAME>
[(2R,3S)-1-[N-(2-methylpropyl)(4-aminobenzene)sulfonamido]-3-({[(3S)-oxolan-3-yloxy]carbonyl}amino)-4-phenylbutan-2-yl]oxyphosphonic acid

> <INCHI_IDENTIFIER>
InChI=1S/C25H36N3O9PS/c1-18(2)15-28(39(33,34)22-10-8-20(26)9-11-22)16-24(37-38(30,31)32)23(14-19-6-4-3-5-7-19)27-25(29)36-21-12-13-35-17-21/h3-11,18,21,23-24H,12-17,26H2,1-2H3,(H,27,29)(H2,30,31,32)/t21-,23-,24+/m0/s1

> <INCHI_KEY>
InChIKey=MLBVMOWEQCZNCC-OEMFJLHTSA-N

> <SMILES>
CC(C)CN(C[C@@H](OP(O)(O)=O)[C@H](CC1=CC=CC=C1)NC(=O)O[C@H]1CCOC1)S(=O)(=O)C1=CC=C(N)C=C1

> <JCHEM_ACCEPTOR_COUNT>
8

> <JCHEM_DONOR_COUNT>
4

> <JCHEM_ACIDIC_PKA>
1.22

> <JCHEM_BASIC_PKA>
2.45

> <JCHEM_PHYSIOLOGICAL_CHARGE>
-2

> <ALOGPS_LOGP>
0.84

> <JCHEM_LOGP>
1.92

> <ALOGPS_LOGS>
-2.9

> <JCHEM_POLARIZABILITY>
57.77

> <JCHEM_POLAR_SURFACE_AREA>
177.72

> <JCHEM_REFRACTIVITY>
144.95

> <JCHEM_ROTATABLE_BOND_COUNT>
13

> <ALOGPS_SOLUBILITY>
6.85e-01 g/l __ 

$$$$
