
  Mrv0541 02231215482D          

 34 37  0  0  1  0            999 V2000
   -3.3157    2.6850    0.0000 O   0  0  0  0  0  0  0  0  0  0  0  0
   -3.9288    2.1330    0.0000 C   0  0  1  0  0  0  0  0  0  0  0  0
   -3.8426    1.3125    0.0000 C   0  0  2  0  0  0  0  0  0  0  0  0
   -3.1281    0.9000    0.0000 C   0  0  0  0  0  0  0  0  0  0  0  0
   -2.4137    1.3125    0.0000 O   0  0  0  0  0  0  0  0  0  0  0  0
   -1.6992    0.9000    0.0000 P   0  0  2  0  0  0  0  0  0  0  0  0
   -1.2867    1.6145    0.0000 O   0  0  0  0  0  0  0  0  0  0  0  0
   -2.1117    0.1856    0.0000 O   0  0  0  0  0  0  0  0  0  0  0  0
   -0.9847    0.4875    0.0000 O   0  0  0  0  0  0  0  0  0  0  0  0
   -0.2703    0.9000    0.0000 P   0  0  0  0  0  0  0  0  0  0  0  0
    0.4442    1.3125    0.0000 O   0  0  0  0  0  0  0  0  0  0  0  0
   -0.6828    1.6145    0.0000 O   0  0  0  0  0  0  0  0  0  0  0  0
    0.1422    0.1856    0.0000 O   0  0  0  0  0  0  0  0  0  0  0  0
   -4.5963    0.9770    0.0000 O   0  0  0  0  0  0  0  0  0  0  0  0
   -5.1483    1.5901    0.0000 C   0  0  2  0  0  0  0  0  0  0  0  0
   -4.7358    2.3045    0.0000 C   0  0  2  0  0  0  0  0  0  0  0  0
   -5.0714    3.0582    0.0000 O   0  0  0  0  0  0  0  0  0  0  0  0
   -5.9688    1.5038    0.0000 N   0  0  0  0  0  0  0  0  0  0  0  0
   -6.5208    2.1169    0.0000 C   0  0  0  0  0  0  0  0  0  0  0  0
   -7.2745    1.7814    0.0000 N   0  0  0  0  0  0  0  0  0  0  0  0
   -7.1883    0.9609    0.0000 C   0  0  0  0  0  0  0  0  0  0  0  0
   -6.3813    0.7894    0.0000 C   0  0  0  0  0  0  0  0  0  0  0  0
   -6.1264    0.0047    0.0000 N   0  0  0  0  0  0  0  0  0  0  0  0
   -6.6784   -0.6084    0.0000 C   0  0  0  0  0  0  0  0  0  0  0  0
   -7.4854   -0.4368    0.0000 N   0  0  0  0  0  0  0  0  0  0  0  0
   -7.7403    0.3478    0.0000 C   0  0  0  0  0  0  0  0  0  0  0  0
   -8.5473    0.5193    0.0000 N   0  0  0  0  0  0  0  0  0  0  0  0
   -9.0993   -0.0938    0.0000 C   0  0  0  0  0  0  0  0  0  0  0  0
   -9.9063    0.0778    0.0000 C   0  0  0  0  0  0  0  0  0  0  0  0
  -10.4583   -0.5353    0.0000 C   0  0  0  0  0  0  0  0  0  0  0  0
  -11.2653   -0.3638    0.0000 C   0  0  0  0  0  0  0  0  0  0  0  0
  -11.5202    0.4208    0.0000 C   0  0  0  0  0  0  0  0  0  0  0  0
  -10.9682    1.0339    0.0000 C   0  0  0  0  0  0  0  0  0  0  0  0
  -10.1612    0.8624    0.0000 C   0  0  0  0  0  0  0  0  0  0  0  0
  2  1  1  1  0  0  0
  2  3  1  0  0  0  0
  3  4  1  6  0  0  0
  4  5  1  0  0  0  0
  6  5  1  1  0  0  0
  6  7  1  6  0  0  0
  6  8  2  0  0  0  0
  6  9  1  0  0  0  0
  9 10  1  0  0  0  0
 10 11  1  0  0  0  0
 10 12  1  0  0  0  0
 10 13  2  0  0  0  0
  3 14  1  0  0  0  0
 14 15  1  0  0  0  0
 15 16  1  0  0  0  0
  2 16  1  0  0  0  0
 16 17  1  6  0  0  0
 15 18  1  1  0  0  0
 18 19  1  0  0  0  0
 19 20  2  0  0  0  0
 20 21  1  0  0  0  0
 21 22  2  0  0  0  0
 18 22  1  0  0  0  0
 22 23  1  0  0  0  0
 23 24  2  0  0  0  0
 24 25  1  0  0  0  0
 25 26  2  0  0  0  0
 21 26  1  0  0  0  0
 26 27  1  0  0  0  0
 27 28  1  0  0  0  0
 28 29  1  0  0  0  0
 29 30  2  0  0  0  0
 30 31  1  0  0  0  0
 31 32  2  0  0  0  0
 32 33  1  0  0  0  0
 33 34  2  0  0  0  0
 29 34  1  0  0  0  0
M  END
> <DRUGBANK_ID>
DB01893

> <DRUG_GROUPS>
experimental

> <GENERIC_NAME>
N6-Benzyl Adenosine-5'-Diphosphate

> <CHEMICAL_FORMULA>
C17H21N5O10P2

> <MOLECULAR_WEIGHT>
517.3237

> <EXACT_MASS>
517.076364941

> <IUPAC_NAME>
[({[(2S,3R,4R,5R)-5-[6-(benzylamino)-9H-purin-9-yl]-3,4-dihydroxyoxolan-2-yl]methoxy}(hydroxy)phosphoryl)oxy]phosphonic acid

> <IUPAC_TRADITIONAL_NAME>
{[(2S,3R,4R,5R)-5-[6-(benzylamino)purin-9-yl]-3,4-dihydroxyoxolan-2-yl]methoxy(hydroxy)phosphoryl}oxyphosphonic acid

> <INCHI_IDENTIFIER>
InChI=1S/C17H21N5O10P2/c23-13-11(7-30-34(28,29)32-33(25,26)27)31-17(14(13)24)22-9-21-12-15(19-8-20-16(12)22)18-6-10-4-2-1-3-5-10/h1-5,8-9,11,13-14,17,23-24H,6-7H2,(H,28,29)(H,18,19,20)(H2,25,26,27)/t11-,13-,14+,17+/m0/s1

> <INCHI_KEY>
InChIKey=MRHGMAGSDAQUFH-HVOFVXBASA-N

> <SMILES>
O[C@H]1[C@H](CO[P@](O)(=O)OP(O)(O)=O)O[C@H]([C@@H]1O)N1C=NC2=C1N=CN=C2NCC1=CC=CC=C1

> <JCHEM_ACCEPTOR_COUNT>
12

> <JCHEM_DONOR_COUNT>
6

> <JCHEM_ACIDIC_PKA>
1.77

> <JCHEM_BASIC_PKA>
4.85

> <JCHEM_PHYSIOLOGICAL_CHARGE>
-2

> <ALOGPS_LOGP>
-0.15

> <JCHEM_LOGP>
-3.2

> <ALOGPS_LOGS>
-2.4

> <JCHEM_POLARIZABILITY>
45.89

> <JCHEM_POLAR_SURFACE_AREA>
218.61

> <JCHEM_REFRACTIVITY>
115.05

> <JCHEM_ROTATABLE_BOND_COUNT>
9

> <ALOGPS_SOLUBILITY>
2.23e+00 g/l __ 

$$$$
