1627
  Mrv0541 02231215362D          

 29 30  0  0  1  0            999 V2000
    4.9509   -2.2084    0.0000 S   0  0  0  0  0  0  0  0  0  0  0  0
    4.2365   -0.9709    0.0000 O   0  0  0  0  0  0  0  0  0  0  0  0
    2.0930   -0.5584    0.0000 O   0  0  0  0  0  0  0  0  0  0  0  0
    2.0930   -2.2084    0.0000 O   0  0  0  0  0  0  0  0  0  0  0  0
    3.5220   -3.0334    0.0000 O   0  0  0  0  0  0  0  0  0  0  0  0
    2.8075    1.5042    0.0000 O   0  0  0  0  0  0  0  0  0  0  0  0
    3.5220    1.9167    0.0000 O   0  0  0  0  0  0  0  0  0  0  0  0
    5.0372    2.7372    0.0000 N   0  0  0  0  0  0  0  0  0  0  0  0
    4.2365    0.6792    0.0000 N   0  0  0  0  0  0  0  0  0  0  0  0
    6.2567    2.1942    0.0000 C   0  0  2  0  0  0  0  0  0  0  0  0
    4.9509    1.9167    0.0000 C   0  0  0  0  0  0  0  0  0  0  0  0
    5.7047    1.5811    0.0000 C   0  0  0  0  0  0  0  0  0  0  0  0
    5.8442    2.9087    0.0000 C   0  0  0  0  0  0  0  0  0  0  0  0
    3.5220   -0.5584    0.0000 C   0  0  2  0  0  0  0  0  0  0  0  0
    3.5220    0.2666    0.0000 C   0  0  1  0  0  0  0  0  0  0  0  0
    2.8075   -0.9709    0.0000 C   0  0  1  0  0  0  0  0  0  0  0  0
    7.0772    2.1080    0.0000 C   0  0  0  0  0  0  0  0  0  0  0  0
    2.8075   -1.7959    0.0000 C   0  0  1  0  0  0  0  0  0  0  0  0
    4.2365    1.5042    0.0000 C   0  0  0  0  0  0  0  0  0  0  0  0
    3.5220   -2.2084    0.0000 C   0  0  2  0  0  0  0  0  0  0  0  0
    2.8075    0.6792    0.0000 C   0  0  1  0  0  0  0  0  0  0  0  0
    4.2365   -1.7959    0.0000 C   0  0  1  0  0  0  0  0  0  0  0  0
    4.4241    3.2892    0.0000 C   0  0  0  0  0  0  0  0  0  0  0  0
    7.5621    2.7754    0.0000 C   0  0  0  0  0  0  0  0  0  0  0  0
    2.0930    0.2666    0.0000 C   0  0  0  0  0  0  0  0  0  0  0  0
    8.3826    2.6891    0.0000 C   0  0  0  0  0  0  0  0  0  0  0  0
    5.6655   -1.7959    0.0000 C   0  0  0  0  0  0  0  0  0  0  0  0
    4.0936   -0.2284    0.0000 H   0  0  0  0  0  0  0  0  0  0  0  0
    4.8080   -1.4659    0.0000 H   0  0  0  0  0  0  0  0  0  0  0  0
  1 22  1  0  0  0  0
  1 27  1  0  0  0  0
  2 14  1  0  0  0  0
  2 22  1  0  0  0  0
 16  3  1  1  0  0  0
 18  4  1  1  0  0  0
 20  5  1  6  0  0  0
 21  6  1  1  0  0  0
  7 19  2  0  0  0  0
  8 11  1  0  0  0  0
  8 13  1  0  0  0  0
  8 23  1  0  0  0  0
 15  9  1  1  0  0  0
  9 19  1  0  0  0  0
 10 12  1  0  0  0  0
 10 13  1  0  0  0  0
 10 17  1  6  0  0  0
 11 12  1  0  0  0  0
 11 19  1  0  0  0  0
 14 15  1  0  0  0  0
 14 16  1  0  0  0  0
 14 28  1  6  0  0  0
 15 21  1  0  0  0  0
 16 18  1  0  0  0  0
 17 24  1  0  0  0  0
 18 20  1  0  0  0  0
 20 22  1  0  0  0  0
 21 25  1  0  0  0  0
 22 29  1  1  0  0  0
 24 26  1  0  0  0  0
M  END
> <DRUGBANK_ID>
DB01627

> <DRUG_GROUPS>
approved

> <GENERIC_NAME>
Lincomycin

> <SYNONYMS>
LCM; Lincomycine

> <SALTS>
Lincomycin hydrochloride

> <BRANDS>
Lincobect; Lincocin; Lincorex

> <CHEMICAL_FORMULA>
C18H34N2O6S

> <MOLECULAR_WEIGHT>
406.537

> <EXACT_MASS>
406.21375752

> <IUPAC_NAME>
(4R)-N-[(1R,2R)-2-hydroxy-1-[(2R,3R,4S,5R,6R)-3,4,5-trihydroxy-6-(methylsulfanyl)oxan-2-yl]propyl]-1-methyl-4-propylpyrrolidine-2-carboxamide

> <IUPAC_TRADITIONAL_NAME>
lincomycin

> <INCHI_IDENTIFIER>
InChI=1S/C18H34N2O6S/c1-5-6-10-7-11(20(3)8-10)17(25)19-12(9(2)21)16-14(23)13(22)15(24)18(26-16)27-4/h9-16,18,21-24H,5-8H2,1-4H3,(H,19,25)/t9-,10-,11?,12-,13+,14-,15-,16-,18-/m1/s1

> <INCHI_KEY>
InChIKey=OJMMVQQUTAEWLP-ISVUEQNNSA-N

> <SMILES>
[H][C@@]1(O[C@]([H])([C@H](NC(=O)C2C[C@@H](CCC)CN2C)[C@@H](C)O)[C@H](O)[C@H](O)[C@H]1O)SC

> <JCHEM_ACCEPTOR_COUNT>
7

> <JCHEM_DONOR_COUNT>
5

> <JCHEM_ACIDIC_PKA>
12.37

> <JCHEM_BASIC_PKA>
7.97

> <JCHEM_PHYSIOLOGICAL_CHARGE>
1

> <ALOGPS_LOGP>
0.5

> <JCHEM_LOGP>
-0.32

> <ALOGPS_LOGS>
-1.1

> <JCHEM_POLARIZABILITY>
43.72

> <JCHEM_POLAR_SURFACE_AREA>
122.49

> <JCHEM_REFRACTIVITY>
102.67

> <JCHEM_ROTATABLE_BOND_COUNT>
7

> <ALOGPS_SOLUBILITY>
2.93e+01 g/l __ 

$$$$
