1260
  Mrv0541 02231215212D          

 34 38  0  0  1  0            999 V2000
    7.4742   -0.8731    0.0000 O   0  0  0  0  0  0  0  0  0  0  0  0
    6.9362   -2.0785    0.0000 O   0  0  0  0  0  0  0  0  0  0  0  0
    5.3411    1.8278    0.0000 O   0  0  0  0  0  0  0  0  0  0  0  0
    7.2460    0.5198    0.0000 O   0  0  0  0  0  0  0  0  0  0  0  0
    8.7528   -0.1526    0.0000 O   0  0  0  0  0  0  0  0  0  0  0  0
    1.6500    2.3594    0.0000 O   0  0  0  0  0  0  0  0  0  0  0  0
    6.0555   -0.2347    0.0000 C   0  0  1  0  0  0  0  0  0  0  0  0
    5.3411   -0.6472    0.0000 C   0  0  2  0  0  0  0  0  0  0  0  0
    4.6266   -0.2347    0.0000 C   0  0  1  0  0  0  0  0  0  0  0  0
    6.6637   -0.7851    0.0000 C   0  0  1  0  0  0  0  0  0  0  0  0
    4.6266    0.5903    0.0000 C   0  0  2  0  0  0  0  0  0  0  0  0
    6.3294   -1.5340    0.0000 C   0  0  1  0  0  0  0  0  0  0  0  0
    5.5137   -1.4491    0.0000 C   0  0  0  0  0  0  0  0  0  0  0  0
    6.0555    0.5903    0.0000 C   0  0  0  0  0  0  0  0  0  0  0  0
    5.3411    1.0028    0.0000 C   0  0  2  0  0  0  0  0  0  0  0  0
    3.8890    1.0314    0.0000 C   0  0  1  0  0  0  0  0  0  0  0  0
    3.8890   -0.6759    0.0000 C   0  0  0  0  0  0  0  0  0  0  0  0
    6.7701    0.1778    0.0000 C   0  0  0  0  0  0  0  0  0  0  0  0
    3.1416   -0.2520    0.0000 C   0  0  0  0  0  0  0  0  0  0  0  0
    7.6423   -1.6709    0.0000 C   0  0  0  0  0  0  0  0  0  0  0  0
    7.3315   -0.3007    0.0000 C   0  0  0  0  0  0  0  0  0  0  0  0
    3.1416    0.6075    0.0000 C   0  0  0  0  0  0  0  0  0  0  0  0
    4.6067    1.4383    0.0000 C   0  0  0  0  0  0  0  0  0  0  0  0
    3.9098    1.9262    0.0000 C   0  0  0  0  0  0  0  0  0  0  0  0
    8.0849   -0.6370    0.0000 C   0  0  0  0  0  0  0  0  0  0  0  0
    8.4494   -1.5000    0.0000 C   0  0  0  0  0  0  0  0  0  0  0  0
    8.0541   -2.3857    0.0000 C   0  0  0  0  0  0  0  0  0  0  0  0
    2.3629    1.0490    0.0000 C   0  0  0  0  0  0  0  0  0  0  0  0
    3.1416    2.3857    0.0000 C   0  0  0  0  0  0  0  0  0  0  0  0
    2.3629    1.9442    0.0000 C   0  0  0  0  0  0  0  0  0  0  0  0
    4.8076   -1.0359    0.0000 H   0  0  0  0  0  0  0  0  0  0  0  0
    4.6317   -0.8947    0.0000 H   0  0  0  0  0  0  0  0  0  0  0  0
    5.1982    0.2603    0.0000 H   0  0  0  0  0  0  0  0  0  0  0  0
    6.0617   -2.1374    0.0000 H   0  0  0  0  0  0  0  0  0  0  0  0
  1 10  1  0  0  0  0
  1 20  1  0  0  0  0
  2 12  1  0  0  0  0
  2 20  1  0  0  0  0
 15  3  1  1  0  0  0
  4 21  2  0  0  0  0
  5 25  1  0  0  0  0
  6 30  2  0  0  0  0
  7  8  1  0  0  0  0
  7 10  1  0  0  0  0
  7 14  1  0  0  0  0
  7 18  1  1  0  0  0
  8  9  1  0  0  0  0
  8 13  1  0  0  0  0
  8 31  1  6  0  0  0
  9 11  1  0  0  0  0
  9 17  1  0  0  0  0
  9 32  1  1  0  0  0
 10 12  1  0  0  0  0
 10 21  1  1  0  0  0
 11 15  1  0  0  0  0
 11 16  1  0  0  0  0
 11 33  1  6  0  0  0
 12 13  1  0  0  0  0
 12 34  1  1  0  0  0
 14 15  1  0  0  0  0
 16 22  1  0  0  0  0
 16 23  1  1  0  0  0
 16 24  1  0  0  0  0
 17 19  1  0  0  0  0
 19 22  1  0  0  0  0
 20 26  1  0  0  0  0
 20 27  1  0  0  0  0
 21 25  1  0  0  0  0
 22 28  2  0  0  0  0
 24 29  2  0  0  0  0
 28 30  1  0  0  0  0
 29 30  1  0  0  0  0
M  END
> <DRUGBANK_ID>
DB01260

> <DRUG_GROUPS>
approved; investigational

> <GENERIC_NAME>
Desonide

> <BRANDS>


> <CHEMICAL_FORMULA>
C24H32O6

> <MOLECULAR_WEIGHT>
416.5073

> <EXACT_MASS>
416.219888756

> <IUPAC_NAME>
(1S,2S,4R,8S,9S,11S,12S,13R)-11-hydroxy-8-(2-hydroxyacetyl)-6,6,9,13-tetramethyl-5,7-dioxapentacyclo[10.8.0.0^{2,9}.0^{4,8}.0^{13,18}]icosa-14,17-dien-16-one

> <IUPAC_TRADITIONAL_NAME>
desonide

> <INCHI_IDENTIFIER>
InChI=1S/C24H32O6/c1-21(2)29-19-10-16-15-6-5-13-9-14(26)7-8-22(13,3)20(15)17(27)11-23(16,4)24(19,30-21)18(28)12-25/h7-9,15-17,19-20,25,27H,5-6,10-12H2,1-4H3/t15-,16-,17-,19+,20+,22-,23-,24+/m0/s1

> <INCHI_KEY>
InChIKey=WBGKWQHBNHJJPZ-LECWWXJVSA-N

> <SMILES>
[H][C@@]12C[C@@]3([H])[C@]4([H])CCC5=CC(=O)C=C[C@]5(C)[C@@]4([H])[C@@H](O)C[C@]3(C)[C@@]1(OC(C)(C)O2)C(=O)CO

> <JCHEM_ACCEPTOR_COUNT>
6

> <JCHEM_DONOR_COUNT>
2

> <JCHEM_ACIDIC_PKA>
13.74

> <JCHEM_BASIC_PKA>
-2.9

> <JCHEM_PHYSIOLOGICAL_CHARGE>
0

> <ALOGPS_LOGP>
2.31

> <JCHEM_LOGP>
1.9

> <ALOGPS_LOGS>
-3.9

> <JCHEM_POLARIZABILITY>
44.77

> <JCHEM_POLAR_SURFACE_AREA>
93.06

> <JCHEM_REFRACTIVITY>
112.06

> <JCHEM_ROTATABLE_BOND_COUNT>
2

> <ALOGPS_SOLUBILITY>
5.94e-02 g/l __ 

$$$$
