1500
  Mrv0541 02231215312D          

 24 27  0  0  1  0            999 V2000
    7.1353    2.2840    0.0000 O   0  0  0  0  0  0  0  0  0  0  0  0
    3.1440   -2.1320    0.0000 O   0  0  0  0  0  0  0  0  0  0  0  0
    1.6498   -1.2693    0.0000 O   0  0  0  0  0  0  0  0  0  0  0  0
    6.0985    0.4236    0.0000 C   0  0  2  0  0  0  0  0  0  0  0  0
    6.0985    1.2485    0.0000 C   0  0  2  0  0  0  0  0  0  0  0  0
    5.3842    0.0112    0.0000 C   0  0  1  0  0  0  0  0  0  0  0  0
    4.6697    0.4236    0.0000 C   0  0  2  0  0  0  0  0  0  0  0  0
    5.3842    1.6610    0.0000 C   0  0  0  0  0  0  0  0  0  0  0  0
    6.8790    1.4999    0.0000 C   0  0  2  0  0  0  0  0  0  0  0  0
    4.6697    1.2485    0.0000 C   0  0  0  0  0  0  0  0  0  0  0  0
    6.8790    0.1723    0.0000 C   0  0  0  0  0  0  0  0  0  0  0  0
    3.9191    0.0055    0.0000 C   0  0  0  0  0  0  0  0  0  0  0  0
    5.3974   -0.8479    0.0000 C   0  0  0  0  0  0  0  0  0  0  0  0
    7.3604    0.8361    0.0000 C   0  0  0  0  0  0  0  0  0  0  0  0
    6.0985    2.0734    0.0000 C   0  0  0  0  0  0  0  0  0  0  0  0
    4.6566   -1.2833    0.0000 C   0  0  0  0  0  0  0  0  0  0  0  0
    3.9125   -0.8537    0.0000 C   0  0  0  0  0  0  0  0  0  0  0  0
    3.1546    0.4708    0.0000 C   0  0  0  0  0  0  0  0  0  0  0  0
    2.3726    0.0354    0.0000 C   0  0  0  0  0  0  0  0  0  0  0  0
    3.1409   -1.3071    0.0000 C   0  0  0  0  0  0  0  0  0  0  0  0
    2.3657   -0.8596    0.0000 C   0  0  0  0  0  0  0  0  0  0  0  0
    6.1683   -0.2326    0.0000 H   0  0  0  0  0  0  0  0  0  0  0  0
    5.9581   -0.3144    0.0000 H   0  0  0  0  0  0  0  0  0  0  0  0
    5.2413    0.7536    0.0000 H   0  0  0  0  0  0  0  0  0  0  0  0
  9  1  1  1  0  0  0
  2 20  1  0  0  0  0
  3 21  2  0  0  0  0
  4  5  1  0  0  0  0
  4  6  1  0  0  0  0
  4 11  1  0  0  0  0
  4 22  1  6  0  0  0
  5  8  1  0  0  0  0
  5  9  1  0  0  0  0
  5 15  1  1  0  0  0
  6  7  1  0  0  0  0
  6 13  1  0  0  0  0
  6 23  1  1  0  0  0
  7 10  1  0  0  0  0
  7 12  1  0  0  0  0
  7 24  1  6  0  0  0
  8 10  1  0  0  0  0
  9 14  1  0  0  0  0
 11 14  1  0  0  0  0
 12 17  1  0  0  0  0
 12 18  1  0  0  0  0
 13 16  1  0  0  0  0
 16 17  1  0  0  0  0
 17 20  2  0  0  0  0
 18 19  1  0  0  0  0
 19 21  1  0  0  0  0
 20 21  1  0  0  0  0
M  END
> <DRUGBANK_ID>
DB01500

> <DRUG_GROUPS>
experimental; illicit

> <GENERIC_NAME>
4-Hydroxy-19-nortestosterone

> <CHEMICAL_FORMULA>
C18H26O3

> <MOLECULAR_WEIGHT>
290.3972

> <EXACT_MASS>
290.188194698

> <IUPAC_NAME>
(1S,10R,11S,14S,15S)-6,14-dihydroxy-15-methyltetracyclo[8.7.0.0^{2,7}.0^{11,15}]heptadec-6-en-5-one

> <IUPAC_TRADITIONAL_NAME>
(1S,10R,11S,14S,15S)-6,14-dihydroxy-15-methyltetracyclo[8.7.0.0^{2,7}.0^{11,15}]heptadec-6-en-5-one

> <INCHI_IDENTIFIER>
InChI=1S/C18H26O3/c1-18-9-8-11-10-4-6-15(19)17(21)13(10)3-2-12(11)14(18)5-7-16(18)20/h10-12,14,16,20-21H,2-9H2,1H3/t10?,11-,12-,14+,16+,18+/m1/s1

> <INCHI_KEY>
InChIKey=GXHBCWCMYVTJOW-FHUHANJTSA-N

> <SMILES>
[H][C@@]12CC[C@H](O)[C@@]1(C)CC[C@]1([H])C3CCC(=O)C(O)=C3CC[C@@]21[H]

> <JCHEM_ACCEPTOR_COUNT>
3

> <JCHEM_DONOR_COUNT>
2

> <JCHEM_ACIDIC_PKA>
9.3

> <JCHEM_BASIC_PKA>
-0.88

> <JCHEM_PHYSIOLOGICAL_CHARGE>
0

> <ALOGPS_LOGP>
1.95

> <JCHEM_LOGP>
2.55

> <ALOGPS_LOGS>
-3.5

> <JCHEM_POLARIZABILITY>
33.26

> <JCHEM_POLAR_SURFACE_AREA>
57.53

> <JCHEM_REFRACTIVITY>
81.92

> <JCHEM_ROTATABLE_BOND_COUNT>
0

> <ALOGPS_SOLUBILITY>
8.83e-02 g/l __ 

$$$$
