
  Mrv0541 02231215392D          

  5  4  0  0  1  0            999 V2000
    2.0625   -0.7145    0.0000 C    0  0  0  0  0  0  0  0  0  0  0  0
    1.2375   -0.7145    0.0000 C    0  0  1  0  0  0  0  0  0  0  0  0
    0.8250   -1.4289    0.0000 Cl   0  0  0  0  0  0  0  0  0  0  0  0
    0.8250    0.0000    0.0000 C    0  0  0  0  0  0  0  0  0  0  0  0
    0.0000    0.0000    0.0000 Cl   0  0  0  0  0  0  0  0  0  0  0  0
  1  2  1  0  0  0  0
  2  3  1  1  0  0  0
  2  4  1  0  0  0  0
  4  5  1  0  0  0  0
M  END
> <DRUGBANK_ID>
DB01701

> <DRUG_GROUPS>
experimental

> <GENERIC_NAME>
1,2-Dichloro-Propane

> <CHEMICAL_FORMULA>
C3H6Cl2

> <MOLECULAR_WEIGHT>
112.986

> <EXACT_MASS>
111.984655606

> <IUPAC_NAME>
(2R)-1,2-dichloropropane

> <IUPAC_TRADITIONAL_NAME>
1,2-dichloro-propane

> <INCHI_IDENTIFIER>
InChI=1S/C3H6Cl2/c1-3(5)2-4/h3H,2H2,1H3/t3-/m1/s1

> <INCHI_KEY>
InChIKey=KNKRKFALVUDBJE-GSVOUGTGSA-N

> <SMILES>
C[C@@H](Cl)CCl

> <JCHEM_ACCEPTOR_COUNT>
0

> <JCHEM_DONOR_COUNT>
0

> <JCHEM_PHYSIOLOGICAL_CHARGE>
0

> <ALOGPS_LOGP>
2.13

> <JCHEM_LOGP>
1.92

> <ALOGPS_LOGS>
-1.7

> <JCHEM_POLARIZABILITY>
10.3

> <JCHEM_POLAR_SURFACE_AREA>
0

> <JCHEM_REFRACTIVITY>
25.07

> <JCHEM_ROTATABLE_BOND_COUNT>
1

> <ALOGPS_SOLUBILITY>
2.11e+00 g/l __ 

$$$$
