 
  Mrv0541 02231215152D          
 
 71 74  0  0  1  0            999 V2000
   12.8725  -11.1521    0.0000 C   0  0  1  0  0  0  0  0  0  0  0  0
   13.5903  -11.5667    0.0000 C   0  0  1  0  0  0  0  0  0  0  0  0
   12.8725  -10.3272    0.0000 C   0  0  2  0  0  0  0  0  0  0  0  0
   11.8517  -11.7493    0.0000 O   0  0  0  0  0  0  0  0  0  0  0  0
   14.2992  -11.1521    0.0000 C   0  0  2  0  0  0  0  0  0  0  0  0
   13.5903  -12.3914    0.0000 O   0  0  0  0  0  0  0  0  0  0  0  0
   13.5903   -9.9172    0.0000 O   0  0  0  0  0  0  0  0  0  0  0  0
   12.1547   -9.9172    0.0000 C   0  0  0  0  0  0  0  0  0  0  0  0
   10.8307  -12.3335    0.0000 C   0  0  1  0  0  0  0  0  0  0  0  0
   14.2992  -10.3272    0.0000 C   0  0  2  0  0  0  0  0  0  0  0  0
   14.9729  -11.9185    0.0000 N   0  0  0  0  0  0  0  0  0  0  0  0
   11.4415  -10.3272    0.0000 O   0  0  0  0  0  0  0  0  0  0  0  0
   10.8307  -13.1582    0.0000 C   0  0  1  0  0  0  0  0  0  0  0  0
   10.1175  -11.9232    0.0000 O   0  0  0  0  0  0  0  0  0  0  0  0
   15.3200   -9.7433    0.0000 O   0  0  0  0  0  0  0  0  0  0  0  0
   16.1934  -11.9139    0.0000 S   0  0  0  0  0  0  0  0  0  0  0  0
   10.1175  -13.5728    0.0000 C   0  0  2  0  0  0  0  0  0  0  0  0
   11.7684  -14.1445    0.0000 O   0  0  0  0  0  0  0  0  0  0  0  0
    9.3996  -12.3335    0.0000 C   0  0  2  0  0  0  0  0  0  0  0  0
   16.3409   -9.1504    0.0000 C   0  0  2  0  0  0  0  0  0  0  0  0
   16.1889  -12.7387    0.0000 O   0  0  0  0  0  0  0  0  0  0  0  0
   16.1889  -11.0892    0.0000 O   0  0  0  0  0  0  0  0  0  0  0  0
   17.0225  -11.9139    0.0000 O   0  0  0  0  0  0  0  0  0  0  0  0
    9.3996  -13.1582    0.0000 C   0  0  1  0  0  0  0  0  0  0  0  0
   10.1175  -14.3975    0.0000 O   0  0  0  0  0  0  0  0  0  0  0  0
    8.6864  -11.9232    0.0000 C   0  0  0  0  0  0  0  0  0  0  0  0
   16.3409   -8.3257    0.0000 C   0  0  2  0  0  0  0  0  0  0  0  0
   17.0586   -9.5650    0.0000 C   0  0  1  0  0  0  0  0  0  0  0  0
    8.6819  -13.5683    0.0000 O   0  0  0  0  0  0  0  0  0  0  0  0
    7.9730  -12.3335    0.0000 O   0  0  0  0  0  0  0  0  0  0  0  0
    8.6864  -11.0985    0.0000 O   0  0  0  0  0  0  0  0  0  0  0  0
   17.0586   -7.9154    0.0000 O   0  0  0  0  0  0  0  0  0  0  0  0
   15.6276   -7.9154    0.0000 C   0  0  0  0  0  0  0  0  0  0  0  0
   17.7720   -9.1504    0.0000 C   0  0  2  0  0  0  0  0  0  0  0  0
   17.0586  -10.3942    0.0000 O   0  0  0  0  0  0  0  0  0  0  0  0
    6.9121  -13.5594    0.0000 *   0  0  0  0  0  0  0  0  0  0  0  0
   17.7720   -8.3257    0.0000 C   0  0  2  0  0  0  0  0  0  0  0  0
   14.9099   -8.3257    0.0000 O   0  0  0  0  0  0  0  0  0  0  0  0
   15.6276   -7.0907    0.0000 O   0  0  0  0  0  0  0  0  0  0  0  0
   19.3208  -10.0487    0.0000 O   0  0  0  0  0  0  0  0  0  0  0  0
   18.7974   -7.7326    0.0000 O   0  0  0  0  0  0  0  0  0  0  0  0
   19.8138   -7.1442    0.0000 C   0  0  2  0  0  0  0  0  0  0  0  0
   19.8138   -6.3194    0.0000 C   0  0  2  0  0  0  0  0  0  0  0  0
   20.5314   -7.5589    0.0000 C   0  0  1  0  0  0  0  0  0  0  0  0
   20.5314   -5.9093    0.0000 O   0  0  0  0  0  0  0  0  0  0  0  0
   19.1005   -5.9093    0.0000 C   0  0  0  0  0  0  0  0  0  0  0  0
   21.2449   -7.1442    0.0000 C   0  0  2  0  0  0  0  0  0  0  0  0
   20.5314   -8.3880    0.0000 O   0  0  0  0  0  0  0  0  0  0  0  0
   21.2449   -6.3194    0.0000 C   0  0  0  0  0  0  0  0  0  0  0  0
   18.2713   -5.9004    0.0000 O   0  0  0  0  0  0  0  0  0  0  0  0
   22.5298   -7.7348    0.0000 N   0  0  0  0  0  0  0  0  0  0  0  0
   22.7828   -5.4368    0.0000 *   0  0  0  0  0  0  0  0  0  0  0  0
   17.4465   -5.8959    0.0000 S   0  0  0  0  0  0  0  0  0  0  0  0
   22.5342   -8.5639    0.0000 C   0  0  0  0  0  0  0  0  0  0  0  0
   17.4421   -6.7207    0.0000 O   0  0  0  0  0  0  0  0  0  0  0  0
   17.4421   -5.0712    0.0000 O   0  0  0  0  0  0  0  0  0  0  0  0
   16.6217   -5.8915    0.0000 O   0  0  0  0  0  0  0  0  0  0  0  0
   23.2475   -8.9741    0.0000 C   0  0  0  0  0  0  0  0  0  0  0  0
   21.8165   -8.9741    0.0000 O   0  0  0  0  0  0  0  0  0  0  0  0
   11.7684  -15.0239    0.0000 S   0  0  0  0  0  0  0  0  0  0  0  0
   11.7684  -15.9034    0.0000 O   0  0  0  0  0  0  0  0  0  0  0  0
   12.6642  -15.0236    0.0000 O   0  0  0  0  0  0  0  0  0  0  0  0
   10.9056  -15.0242    0.0000 O   0  0  0  0  0  0  0  0  0  0  0  0
   13.5903  -13.2709    0.0000 S   0  0  0  0  0  0  0  0  0  0  0  0
   13.5903  -14.1504    0.0000 O   0  0  0  0  0  0  0  0  0  0  0  0
   14.4672  -13.2709    0.0000 O   0  0  0  0  0  0  0  0  0  0  0  0
   12.7084  -13.2708    0.0000 O   0  0  0  0  0  0  0  0  0  0  0  0
   19.3208  -10.9282    0.0000 S   0  0  0  0  0  0  0  0  0  0  0  0
   19.3208  -11.8076    0.0000 O   0  0  0  0  0  0  0  0  0  0  0  0
   20.1836  -10.9285    0.0000 O   0  0  0  0  0  0  0  0  0  0  0  0
   18.4251  -10.9278    0.0000 O   0  0  0  0  0  0  0  0  0  0  0  0
  1  2  1  0  0  0  0
  1  3  1  0  0  0  0
  1  4  1  6  0  0  0
  2  5  1  0  0  0  0
  2  6  1  1  0  0  0
  3  7  1  0  0  0  0
  3  8  1  1  0  0  0
  9  4  1  1  0  0  0
  5 10  1  0  0  0  0
  5 11  1  6  0  0  0
  8 12  1  0  0  0  0
  9 13  1  0  0  0  0
  9 14  1  0  0  0  0
 10 15  1  6  0  0  0
 11 16  1  0  0  0  0
 13 17  1  0  0  0  0
 13 18  1  6  0  0  0
 14 19  1  0  0  0  0
 20 15  1  6  0  0  0
 16 21  1  0  0  0  0
 16 22  2  0  0  0  0
 16 23  2  0  0  0  0
 17 24  1  0  0  0  0
 17 25  1  1  0  0  0
 19 26  1  6  0  0  0
 20 27  1  0  0  0  0
 20 28  1  0  0  0  0
 24 29  1  6  0  0  0
 26 30  1  0  0  0  0
 26 31  2  0  0  0  0
 27 32  1  0  0  0  0
 27 33  1  1  0  0  0
 28 34  1  0  0  0  0
 28 35  1  1  0  0  0
 29 36  1  0  0  0  0
 32 37  1  0  0  0  0
 33 38  1  0  0  0  0
 33 39  2  0  0  0  0
 34 40  1  6  0  0  0
 37 41  1  1  0  0  0
 42 41  1  6  0  0  0
 42 43  1  0  0  0  0
 42 44  1  0  0  0  0
 43 45  1  0  0  0  0
 43 46  1  1  0  0  0
 44 47  1  0  0  0  0
 44 48  1  1  0  0  0
 45 49  1  0  0  0  0
 46 50  1  0  0  0  0
 47 51  1  6  0  0  0
 49 52  1  0  0  0  0
 50 53  1  0  0  0  0
 51 54  1  0  0  0  0
 53 55  1  0  0  0  0
 53 56  2  0  0  0  0
 53 57  2  0  0  0  0
 54 58  1  0  0  0  0
 54 59  2  0  0  0  0
  7 10  1  0  0  0  0
 19 24  1  0  0  0  0
 34 37  1  0  0  0  0
 47 49  1  0  0  0  0
 18 60  1  0  0  0  0
 60 61  2  0  0  0  0
 60 62  2  0  0  0  0
 60 63  1  0  0  0  0
  6 64  1  0  0  0  0
 64 65  2  0  0  0  0
 64 66  2  0  0  0  0
 64 67  1  0  0  0  0
 40 68  1  0  0  0  0
 68 69  2  0  0  0  0
 68 70  2  0  0  0  0
 68 71  1  0  0  0  0
M  END
> <DRUGBANK_ID>
DB01109

> <DRUG_GROUPS>
approved; investigational

> <GENERIC_NAME>
Heparin

> <SYNONYMS>
Eparina; Heparinic acid

> <SALTS>
Heparin sodium

> <BRANDS>
Calcilean; Calciparine; Hepalean; Heparin LEO; Heparin Lock Flush; Liquaemin; Liquemin; Multiparin; Novoheparin __ 

$$$$
