1531
  Mrv0541 02231215322D          

 20 24  0  0  1  0            999 V2000
    1.9356   -0.2337    0.0000 O   0  0  0  0  0  0  0  0  0  0  0  0
    1.7348    1.8041    0.0000 O   0  0  0  0  0  0  0  0  0  0  0  0
    5.3438   -1.1045    0.0000 N   0  0  0  0  0  0  0  0  0  0  0  0
    3.2005   -0.6920    0.0000 C   0  0  0  0  0  0  0  0  0  0  0  0
    3.9149   -1.1045    0.0000 C   0  0  0  0  0  0  0  0  0  0  0  0
    4.6294   -0.6920    0.0000 C   0  0  0  0  0  0  0  0  0  0  0  0
    2.4860   -1.1045    0.0000 C   0  0  0  0  0  0  0  0  0  0  0  0
    3.6772   -0.0870    0.0000 C   0  0  0  0  0  0  0  0  0  0  0  0
    3.2005    0.1330    0.0000 C   0  0  0  0  0  0  0  0  0  0  0  0
    3.9149   -1.9295    0.0000 C   0  0  0  0  0  0  0  0  0  0  0  0
    2.4860   -1.9295    0.0000 C   0  0  0  0  0  0  0  0  0  0  0  0
    4.6294    0.1330    0.0000 C   0  0  0  0  0  0  0  0  0  0  0  0
    4.8504   -0.0870    0.0000 C   0  0  0  0  0  0  0  0  0  0  0  0
    3.2005   -2.3420    0.0000 C   0  0  0  0  0  0  0  0  0  0  0  0
    3.9149    0.5454    0.0000 C   0  0  0  0  0  0  0  0  0  0  0  0
    2.4860    0.5454    0.0000 C   0  0  0  0  0  0  0  0  0  0  0  0
    5.9347   -1.7395    0.0000 C   0  0  0  0  0  0  0  0  0  0  0  0
    3.9149    1.3704    0.0000 C   0  0  0  0  0  0  0  0  0  0  0  0
    2.4860    1.3704    0.0000 C   0  0  0  0  0  0  0  0  0  0  0  0
    3.2005    1.7829    0.0000 C   0  0  0  0  0  0  0  0  0  0  0  0
  1  7  1  0  0  0  0
  1 16  1  0  0  0  0
  2 19  1  0  0  0  0
  3  6  1  0  0  0  0
  3 13  1  0  0  0  0
  3 17  1  0  0  0  0
  4  5  1  0  0  0  0
  4  7  1  0  0  0  0
  4  8  1  0  0  0  0
  4  9  1  0  0  0  0
  5  6  1  0  0  0  0
  5 10  1  0  0  0  0
  6 12  1  0  0  0  0
  7 11  1  0  0  0  0
  8 13  1  0  0  0  0
  9 15  2  0  0  0  0
  9 16  1  0  0  0  0
 10 14  1  0  0  0  0
 11 14  1  0  0  0  0
 12 15  1  0  0  0  0
 15 18  1  0  0  0  0
 16 19  2  0  0  0  0
 18 20  2  0  0  0  0
 19 20  1  0  0  0  0
M  END
> <DRUGBANK_ID>
DB01531

> <DRUG_GROUPS>
experimental; illicit

> <GENERIC_NAME>
Desomorphine

> <CHEMICAL_FORMULA>
C17H21NO2

> <MOLECULAR_WEIGHT>
271.3541

> <EXACT_MASS>
271.157228921

> <IUPAC_NAME>
4-methyl-12-oxa-4-azapentacyclo[9.6.1.0^{1,13}.0^{5,17}.0^{7,18}]octadeca-7(18),8,10-trien-10-ol

> <IUPAC_TRADITIONAL_NAME>
desomorphine

> <INCHI_IDENTIFIER>
InChI=1S/C17H21NO2/c1-18-8-7-17-11-3-2-4-14(17)20-16-13(19)6-5-10(15(16)17)9-12(11)18/h5-6,11-12,14,19H,2-4,7-9H2,1H3

> <INCHI_KEY>
InChIKey=LNNWVNGFPYWNQE-UHFFFAOYSA-N

> <SMILES>
CN1CCC23C4CCCC2C1CC1=C3C(O4)=C(O)C=C1

> <JCHEM_ACCEPTOR_COUNT>
3

> <JCHEM_DONOR_COUNT>
1

> <JCHEM_ACIDIC_PKA>
10.35

> <JCHEM_BASIC_PKA>
9.38

> <JCHEM_PHYSIOLOGICAL_CHARGE>
1

> <ALOGPS_LOGP>
2.5

> <JCHEM_LOGP>
2.11

> <ALOGPS_LOGS>
-2.5

> <JCHEM_POLARIZABILITY>
29.89

> <JCHEM_POLAR_SURFACE_AREA>
32.7

> <JCHEM_REFRACTIVITY>
77.8

> <JCHEM_ROTATABLE_BOND_COUNT>
0

> <ALOGPS_SOLUBILITY>
8.60e-01 g/l __ 

$$$$
