
  Mrv0541 02231215372D          

 18 19  0  0  1  0            999 V2000
   -0.7145   -0.4125    0.0000 C   0  0  0  0  0  0  0  0  0  0  0  0
    0.0000    0.0000    0.0000 O   0  0  0  0  0  0  0  0  0  0  0  0
    0.7145   -0.4125    0.0000 C   0  0  2  0  0  0  0  0  0  0  0  0
    1.4289    0.0000    0.0000 O   0  0  0  0  0  0  0  0  0  0  0  0
    2.1434   -0.4125    0.0000 C   0  0  2  0  0  0  0  0  0  0  0  0
    2.8579    0.0000    0.0000 C   0  0  0  0  0  0  0  0  0  0  0  0
    3.5724   -0.4125    0.0000 O   0  0  0  0  0  0  0  0  0  0  0  0
    3.5724   -1.2375    0.0000 C   0  0  2  0  0  0  0  0  0  0  0  0
    4.3848   -1.0942    0.0000 C   0  0  0  0  0  0  0  0  0  0  0  0
    2.8579   -1.6500    0.0000 O   0  0  0  0  0  0  0  0  0  0  0  0
    2.1434   -1.2375    0.0000 C   0  0  2  0  0  0  0  0  0  0  0  0
    1.4289   -1.6500    0.0000 C   0  0  2  0  0  0  0  0  0  0  0  0
    1.4289   -2.4750    0.0000 O   0  0  0  0  0  0  0  0  0  0  0  0
    0.7145   -1.2375    0.0000 C   0  0  1  0  0  0  0  0  0  0  0  0
    0.0000   -1.6500    0.0000 O   0  0  0  0  0  0  0  0  0  0  0  0
    3.8545   -2.0127    0.0000 C   0  0  0  0  0  0  0  0  0  0  0  0
    4.6670   -2.1560    0.0000 O   0  0  0  0  0  0  0  0  0  0  0  0
    3.3242   -2.6447    0.0000 O   0  0  0  0  0  0  0  0  0  0  0  0
  1  2  1  0  0  0  0
  3  2  1  6  0  0  0
  3  4  1  0  0  0  0
  5  4  1  6  0  0  0
  5  6  1  0  0  0  0
  6  7  1  0  0  0  0
  7  8  1  0  0  0  0
  8  9  1  6  0  0  0
  8 10  1  0  0  0  0
 11 10  1  6  0  0  0
  5 11  1  0  0  0  0
 11 12  1  0  0  0  0
 12 13  1  6  0  0  0
 12 14  1  0  0  0  0
  3 14  1  0  0  0  0
 14 15  1  1  0  0  0
  8 16  1  1  0  0  0
 16 17  1  0  0  0  0
 16 18  2  0  0  0  0
M  END
> <DRUGBANK_ID>
DB01651

> <DRUG_GROUPS>
experimental

> <GENERIC_NAME>
Methyl 4,6-O-[(1r)-1-Carboxyethylidene]-Beta-D-Galactopyranoside

> <BRANDS>


> <CHEMICAL_FORMULA>
C10H16O8

> <MOLECULAR_WEIGHT>
264.2292

> <EXACT_MASS>
264.084517488

> <IUPAC_NAME>
(2R,4aR,6R,7R,8R,8aR)-7,8-dihydroxy-6-methoxy-2-methyl-hexahydro-2H-pyrano[3,2-d][1,3]dioxine-2-carboxylic acid

> <IUPAC_TRADITIONAL_NAME>
CDG

> <INCHI_IDENTIFIER>
InChI=1S/C10H16O8/c1-10(9(13)14)16-3-4-7(18-10)5(11)6(12)8(15-2)17-4/h4-8,11-12H,3H2,1-2H3,(H,13,14)/t4-,5-,6-,7+,8-,10-/m1/s1

> <INCHI_KEY>
InChIKey=ZDZVLEQWFATHTF-IJWOWSJNSA-N

> <SMILES>
CO[C@@H]1O[C@@H]2CO[C@](C)(O[C@@H]2[C@H](O)[C@H]1O)C(O)=O

> <JCHEM_ACCEPTOR_COUNT>
8

> <JCHEM_DONOR_COUNT>
3

> <JCHEM_ACIDIC_PKA>
2.96

> <JCHEM_BASIC_PKA>
-3.7

> <JCHEM_PHYSIOLOGICAL_CHARGE>
-1

> <ALOGPS_LOGP>
-1.1

> <JCHEM_LOGP>
-0.82

> <ALOGPS_LOGS>
0

> <JCHEM_POLARIZABILITY>
24.27

> <JCHEM_POLAR_SURFACE_AREA>
114.68

> <JCHEM_REFRACTIVITY>
54.2

> <JCHEM_ROTATABLE_BOND_COUNT>
2

> <ALOGPS_SOLUBILITY>
2.64e+02 g/l __ 

$$$$
