1618
  Mrv0541 02231215362D          

 20 22  0  0  1  0            999 V2000
    1.6500   -0.6625    0.0000 O   0  0  0  0  0  0  0  0  0  0  0  0
    5.2224    1.4001    0.0000 O   0  0  0  0  0  0  0  0  0  0  0  0
    3.0791    0.1625    0.0000 N   0  0  0  0  0  0  0  0  0  0  0  0
    6.7176   -0.9139    0.0000 N   0  0  0  0  0  0  0  0  0  0  0  0
    4.5080    0.1625    0.0000 C   0  0  0  0  0  0  0  0  0  0  0  0
    4.5080   -0.6625    0.0000 C   0  0  0  0  0  0  0  0  0  0  0  0
    3.7935    0.5750    0.0000 C   0  0  0  0  0  0  0  0  0  0  0  0
    5.2224   -1.0750    0.0000 C   0  0  0  0  0  0  0  0  0  0  0  0
    5.9370    0.1625    0.0000 C   0  0  0  0  0  0  0  0  0  0  0  0
    5.9370   -0.6625    0.0000 C   0  0  0  0  0  0  0  0  0  0  0  0
    5.2224    0.5750    0.0000 C   0  0  0  0  0  0  0  0  0  0  0  0
    6.7176    0.4140    0.0000 C   0  0  0  0  0  0  0  0  0  0  0  0
    2.3645    0.5750    0.0000 C   0  0  0  0  0  0  0  0  0  0  0  0
    3.0791   -0.6625    0.0000 C   0  0  0  0  0  0  0  0  0  0  0  0
    7.1991   -0.2500    0.0000 C   0  0  0  0  0  0  0  0  0  0  0  0
    1.6500    0.1625    0.0000 C   0  0  0  0  0  0  0  0  0  0  0  0
    2.3645   -1.0750    0.0000 C   0  0  0  0  0  0  0  0  0  0  0  0
    6.9739    1.1982    0.0000 C   0  0  0  0  0  0  0  0  0  0  0  0
    8.0241   -0.2500    0.0000 C   0  0  0  0  0  0  0  0  0  0  0  0
    7.7812    1.3683    0.0000 C   0  0  0  0  0  0  0  0  0  0  0  0
  1 16  1  0  0  0  0
  1 17  1  0  0  0  0
  2 11  2  0  0  0  0
  3  7  1  0  0  0  0
  3 13  1  0  0  0  0
  3 14  1  0  0  0  0
  4 10  1  0  0  0  0
  4 15  1  0  0  0  0
  5  6  1  0  0  0  0
  5  7  1  0  0  0  0
  5 11  1  0  0  0  0
  6  8  1  0  0  0  0
  8 10  1  0  0  0  0
  9 10  2  0  0  0  0
  9 11  1  0  0  0  0
  9 12  1  0  0  0  0
 12 15  2  0  0  0  0
 12 18  1  0  0  0  0
 13 16  1  0  0  0  0
 14 17  1  0  0  0  0
 15 19  1  0  0  0  0
 18 20  1  0  0  0  0
M  END
> <DRUGBANK_ID>
DB01618

> <DRUG_GROUPS>
approved

> <GENERIC_NAME>
Molindone

> <SYNONYMS>
Molindona; Molindonum

> <BRANDS>


> <CHEMICAL_FORMULA>
C16H24N2O2

> <MOLECULAR_WEIGHT>
276.374

> <EXACT_MASS>
276.183778022

> <IUPAC_NAME>
3-ethyl-2-methyl-5-(morpholin-4-ylmethyl)-4,5,6,7-tetrahydro-1H-indol-4-one

> <IUPAC_TRADITIONAL_NAME>
molindone

> <INCHI_IDENTIFIER>
InChI=1S/C16H24N2O2/c1-3-13-11(2)17-14-5-4-12(16(19)15(13)14)10-18-6-8-20-9-7-18/h12,17H,3-10H2,1-2H3

> <INCHI_KEY>
InChIKey=KLPWJLBORRMFGK-UHFFFAOYSA-N

> <SMILES>
CCC1=C(C)NC2=C1C(=O)C(CN1CCOCC1)CC2

> <JCHEM_ACCEPTOR_COUNT>
3

> <JCHEM_DONOR_COUNT>
1

> <JCHEM_ACIDIC_PKA>
15.34

> <JCHEM_BASIC_PKA>
6.65

> <JCHEM_PHYSIOLOGICAL_CHARGE>
0

> <ALOGPS_LOGP>
2.09

> <JCHEM_LOGP>
2.04

> <ALOGPS_LOGS>
-2.8

> <JCHEM_POLARIZABILITY>
32

> <JCHEM_POLAR_SURFACE_AREA>
45.33

> <JCHEM_REFRACTIVITY>
81.06

> <JCHEM_ROTATABLE_BOND_COUNT>
3

> <ALOGPS_SOLUBILITY>
4.74e-01 g/l __ 

$$$$
