
  Mrv0541 02231215442D          

 50 52  0  0  1  0            999 V2000
    0.0000    0.0000    0.0000 Mg   0  2  0  0  0  0  0  0  0  0  0  0
    2.0036    0.0000    0.0000 W    0  0  0  0  0  0  0  0  0  0  0  0
    3.8701   -4.1250    0.0000 N    0  0  0  0  0  0  0  0  0  0  0  0
    3.1556   -3.7125    0.0000 C    0  0  0  0  0  0  0  0  0  0  0  0
    3.1556   -2.8875    0.0000 N    0  0  0  0  0  0  0  0  0  0  0  0
    2.4411   -2.4750    0.0000 C    0  0  0  0  0  0  0  0  0  0  0  0
    2.4411   -1.6500    0.0000 O    0  0  0  0  0  0  0  0  0  0  0  0
    1.7266   -2.8875    0.0000 C    0  0  0  0  0  0  0  0  0  0  0  0
    1.7266   -3.7125    0.0000 C    0  0  0  0  0  0  0  0  0  0  0  0
    1.0122   -4.1250    0.0000 N    0  0  0  0  0  0  0  0  0  0  0  0
    0.2977   -3.7125    0.0000 C    0  0  1  0  0  0  0  0  0  0  0  0
   -0.4168   -4.1250    0.0000 O    0  0  0  0  0  0  0  0  0  0  0  0
   -1.1312   -3.7125    0.0000 C    0  0  1  0  0  0  0  0  0  0  0  0
   -1.8457   -4.1250    0.0000 C    0  0  0  0  0  0  0  0  0  0  0  0
   -2.5602   -3.7125    0.0000 O    0  0  0  0  0  0  0  0  0  0  0  0
   -3.2747   -4.1250    0.0000 P    0  0  0  0  0  0  0  0  0  0  0  0
   -3.9891   -4.5375    0.0000 O    0  5  0  0  0  0  0  0  0  0  0  0
   -3.6872   -3.4105    0.0000 O    0  5  0  0  0  0  0  0  0  0  0  0
   -2.8622   -4.8395    0.0000 O    0  0  0  0  0  0  0  0  0  0  0  0
   -1.1312   -2.8875    0.0000 C    0  0  0  0  0  0  0  0  0  0  0  0
   -1.8457   -2.4750    0.0000 S    0  5  0  0  0  0  0  0  0  0  0  0
   -0.4168   -2.4750    0.0000 C    0  0  0  0  0  0  0  0  0  0  0  0
   -0.4168   -1.6500    0.0000 S    0  5  0  0  0  0  0  0  0  0  0  0
    0.2977   -2.8875    0.0000 C    0  0  1  0  0  0  0  0  0  0  0  0
    1.0122   -2.4750    0.0000 N    0  0  0  0  0  0  0  0  0  0  0  0
    2.4411   -4.1250    0.0000 N    0  0  0  0  0  0  0  0  0  0  0  0
   13.8507   -4.1250    0.0000 N    0  0  0  0  0  0  0  0  0  0  0  0
   13.1362   -3.7125    0.0000 C    0  0  0  0  0  0  0  0  0  0  0  0
   13.1362   -2.8875    0.0000 N    0  0  0  0  0  0  0  0  0  0  0  0
   12.4217   -2.4750    0.0000 C    0  0  0  0  0  0  0  0  0  0  0  0
   12.4217   -1.6500    0.0000 O    0  0  0  0  0  0  0  0  0  0  0  0
   11.7072   -2.8875    0.0000 C    0  0  0  0  0  0  0  0  0  0  0  0
   11.7072   -3.7125    0.0000 C    0  0  0  0  0  0  0  0  0  0  0  0
   10.9928   -4.1250    0.0000 N    0  0  0  0  0  0  0  0  0  0  0  0
   10.2783   -3.7125    0.0000 C    0  0  1  0  0  0  0  0  0  0  0  0
    9.5638   -4.1250    0.0000 O    0  0  0  0  0  0  0  0  0  0  0  0
    8.8494   -3.7125    0.0000 C    0  0  1  0  0  0  0  0  0  0  0  0
    8.1349   -4.1250    0.0000 C    0  0  0  0  0  0  0  0  0  0  0  0
    7.4204   -3.7125    0.0000 O    0  0  0  0  0  0  0  0  0  0  0  0
    6.7060   -4.1250    0.0000 P    0  0  0  0  0  0  0  0  0  0  0  0
    5.9915   -4.5375    0.0000 O    0  5  0  0  0  0  0  0  0  0  0  0
    6.2935   -3.4105    0.0000 O    0  5  0  0  0  0  0  0  0  0  0  0
    7.1185   -4.8395    0.0000 O    0  0  0  0  0  0  0  0  0  0  0  0
    8.8494   -2.8875    0.0000 C    0  0  0  0  0  0  0  0  0  0  0  0
    8.1349   -2.4750    0.0000 S    0  5  0  0  0  0  0  0  0  0  0  0
    9.5638   -2.4750    0.0000 C    0  0  0  0  0  0  0  0  0  0  0  0
    9.5638   -1.6500    0.0000 S    0  5  0  0  0  0  0  0  0  0  0  0
   10.2783   -2.8875    0.0000 C    0  0  1  0  0  0  0  0  0  0  0  0
   10.9928   -2.4750    0.0000 N    0  0  0  0  0  0  0  0  0  0  0  0
   12.4217   -4.1250    0.0000 N    0  0  0  0  0  0  0  0  0  0  0  0
  3  4  1  0  0  0  0
  4  5  2  0  0  0  0
  5  6  1  0  0  0  0
  6  7  2  0  0  0  0
  6  8  1  0  0  0  0
  8  9  2  0  0  0  0
  9 10  1  0  0  0  0
 10 11  1  0  0  0  0
 11 12  1  1  0  0  0
 12 13  1  0  0  0  0
 13 14  1  1  0  0  0
 14 15  1  0  0  0  0
 15 16  1  0  0  0  0
 16 17  1  0  0  0  0
 16 18  1  0  0  0  0
 16 19  2  0  0  0  0
 13 20  1  0  0  0  0
 20 21  1  0  0  0  0
 20 22  2  0  0  0  0
 22 23  1  0  0  0  0
 22 24  1  0  0  0  0
 11 24  1  0  0  0  0
 24 25  1  1  0  0  0
  8 25  1  0  0  0  0
  9 26  1  0  0  0  0
  4 26  1  0  0  0  0
 27 28  1  0  0  0  0
 28 29  2  0  0  0  0
 29 30  1  0  0  0  0
 30 31  2  0  0  0  0
 30 32  1  0  0  0  0
 32 33  2  0  0  0  0
 33 34  1  0  0  0  0
 34 35  1  0  0  0  0
 35 36  1  1  0  0  0
 36 37  1  0  0  0  0
 37 38  1  1  0  0  0
 38 39  1  0  0  0  0
 39 40  1  0  0  0  0
 40 41  1  0  0  0  0
 40 42  1  0  0  0  0
 40 43  2  0  0  0  0
 37 44  1  0  0  0  0
 44 45  1  0  0  0  0
 44 46  2  0  0  0  0
 46 47  1  0  0  0  0
 46 48  1  0  0  0  0
 35 48  1  0  0  0  0
 48 49  1  1  0  0  0
 32 49  1  0  0  0  0
 33 50  1  0  0  0  0
 28 50  1  0  0  0  0
M  END
> <DRUGBANK_ID>
DB01794

> <DRUG_GROUPS>
experimental

> <GENERIC_NAME>
bis(molybdopterin)tungsten cofactor

> <SYNONYMS>


> <CHEMICAL_FORMULA>
C20H20MgN10O12P2S4W

> <MOLECULAR_WEIGHT>
990.79

> <EXACT_MASS>
989.897996389

> <IUPAC_NAME>
magnesium(2+) ion bis([(5aS,8S,9aS)-2-amino-4-oxo-8-[(phosphonatooxy)methyl]-6-sulfanidyl-1H,4H,5H,5aH,8H,9aH,10H-pyrano[3,2-g]pteridin-7-yl]sulfanide) tungsten

> <IUPAC_TRADITIONAL_NAME>
magnesium bis([(5aS,8S,9aS)-2-amino-4-oxo-8-[(phosphonatooxy)methyl]-6-sulfanidyl-1H,5H,5aH,8H,9aH,10H-pyrano[3,2-g]pteridin-7-yl]sulfanide) tungsten

> <INCHI_IDENTIFIER>
InChI=1S/2C10H14N5O6PS2.Mg.W/c2*11-10-14-7-4(8(16)15-10)12-3-6(24)5(23)2(21-9(3)13-7)1-20-22(17,18)19;;/h2*2-3,9,12,23-24H,1H2,(H2,17,18,19)(H4,11,13,14,15,16);;/q;;+2;/p-8/t2*2-,3+,9-;;/m00../s1

> <INCHI_KEY>
InChIKey=DMQGNSGNJQBKMK-QPNRVYIWSA-F

> <SMILES>
[Mg++].[W].NC1=NC(=O)C2=C(N[C@H]3O[C@@H](COP([O-])([O-])=O)C([S-])=C([S-])[C@H]3N2)N1.NC1=NC(=O)C2=C(N[C@H]3O[C@@H](COP([O-])([O-])=O)C([S-])=C([S-])[C@H]3N2)N1

> <JCHEM_ACCEPTOR_COUNT>
10

> <JCHEM_DONOR_COUNT>
4

> <JCHEM_ACIDIC_PKA>
1.2

> <JCHEM_BASIC_PKA>
3.13

> <JCHEM_PHYSIOLOGICAL_CHARGE>
-3

> <JCHEM_LOGP>
-3.1

> <JCHEM_POLARIZABILITY>
33.73

> <JCHEM_POLAR_SURFACE_AREA>
173.19

> <JCHEM_REFRACTIVITY>
98.01

> <JCHEM_ROTATABLE_BOND_COUNT>
6 __ 

$$$$
