
  Mrv0541 04191212162D          

 47 52  0  0  1  0            999 V2000
    8.6116   -6.9813    0.0000 C   0  0  0  0  0  0  0  0  0  0  0  0
    8.6085   -7.8063    0.0000 C   0  0  0  0  0  0  0  0  0  0  0  0
    9.3260   -8.2205    0.0000 C   0  0  0  0  0  0  0  0  0  0  0  0
   10.0388   -7.8097    0.0000 C   0  0  0  0  0  0  0  0  0  0  0  0
   10.8686   -7.9711    0.0000 N   0  0  0  0  0  0  0  0  0  0  0  0
   11.3048   -7.2121    0.0000 C   0  0  0  0  0  0  0  0  0  0  0  0
   10.7489   -6.5823    0.0000 C   0  0  0  0  0  0  0  0  0  0  0  0
    9.3262   -6.5722    0.0000 C   0  0  0  0  0  0  0  0  0  0  0  0
   10.0388   -6.9883    0.0000 C   0  0  0  0  0  0  0  0  0  0  0  0
   10.7577   -5.7568    0.0000 C   0  0  0  0  0  0  0  0  0  0  0  0
    9.3262   -5.7492    0.0000 C   0  0  2  0  0  0  0  0  0  0  0  0
   10.0409   -5.3380    0.0000 C   0  0  2  0  0  0  0  0  0  0  0  0
   10.0419   -4.5179    0.0000 N   0  0  0  0  0  0  0  0  0  0  0  0
    9.3299   -4.1030    0.0000 C   0  0  0  0  0  0  0  0  0  0  0  0
    8.6154   -4.5143    0.0000 C   0  0  1  0  0  0  0  0  0  0  0  0
    8.6126   -5.3404    0.0000 C   0  0  0  0  0  0  0  0  0  0  0  0
    7.9000   -4.0990    0.0000 C   0  0  0  0  0  0  0  0  0  0  0  0
    7.1828   -4.5107    0.0000 N   0  0  0  0  0  0  0  0  0  0  0  0
   10.7594   -4.1062    0.0000 C   0  0  0  0  0  0  0  0  0  0  0  0
   10.7556   -4.9270    0.0000 H   0  0  0  0  0  0  0  0  0  0  0  0
    7.9021   -3.2719    0.0000 O   0  0  0  0  0  0  0  0  0  0  0  0
    6.3616   -4.5076    0.0000 C   0  0  1  0  0  0  0  0  0  0  0  0
    5.8661   -3.8412    0.0000 C   0  0  0  0  0  0  0  0  0  0  0  0
    5.8787   -5.1794    0.0000 O   0  0  0  0  0  0  0  0  0  0  0  0
    5.0898   -4.9314    0.0000 C   0  0  2  0  0  0  0  0  0  0  0  0
    5.0862   -4.1085    0.0000 N   0  0  0  0  0  0  0  0  0  0  0  0
    4.3761   -3.7026    0.0000 C   0  0  2  0  0  0  0  0  0  0  0  0
    3.6646   -4.1147    0.0000 C   0  0  0  0  0  0  0  0  0  0  0  0
    4.3831   -5.3480    0.0000 C   0  0  1  0  0  0  0  0  0  0  0  0
    3.6666   -4.9392    0.0000 N   0  0  0  0  0  0  0  0  0  0  0  0
    3.0564   -5.4942    0.0000 C   0  0  0  0  0  0  0  0  0  0  0  0
    3.3958   -6.2460    0.0000 C   0  0  0  0  0  0  0  0  0  0  0  0
    4.2155   -6.1556    0.0000 C   0  0  0  0  0  0  0  0  0  0  0  0
    5.0946   -5.7622    0.0000 O   0  0  0  0  0  0  0  0  0  0  0  0
    4.3720   -4.5246    0.0000 H   0  0  0  0  0  0  0  0  0  0  0  0
    6.1112   -3.0512    0.0000 O   0  0  0  0  0  0  0  0  0  0  0  0
    2.9476   -3.7024    0.0000 O   0  0  0  0  0  0  0  0  0  0  0  0
    4.3738   -2.8754    0.0000 C   0  0  0  0  0  0  0  0  0  0  0  0
    6.7790   -5.2231    0.0000 C   0  0  0  0  0  0  0  0  0  0  0  0
    6.3698   -5.9395    0.0000 C   0  0  0  0  0  0  0  0  0  0  0  0
    7.6040   -5.2195    0.0000 C   0  0  0  0  0  0  0  0  0  0  0  0
    8.6078   -6.1626    0.0000 H   0  0  0  0  0  0  0  0  0  0  0  0
    5.9726   -8.0661    0.0000 O   0  0  0  0  0  0  0  0  0  0  0  0
    5.2581   -7.6536    0.0000 S   0  0  0  0  0  0  0  0  0  0  0  0
    4.5436   -8.0661    0.0000 C   0  0  0  0  0  0  0  0  0  0  0  0
    5.6756   -6.9379    0.0000 O   0  0  0  0  0  0  0  0  0  0  0  0
    4.8406   -6.9379    0.0000 O   0  0  0  0  0  0  0  0  0  0  0  0
  7 10  1  0  0  0  0
 10 12  1  0  0  0  0
 11 12  1  0  0  0  0
  1  2  2  0  0  0  0
  8  1  1  0  0  0  0
  2  3  1  0  0  0  0
  4  5  1  0  0  0  0
  5  6  1  0  0  0  0
  6  7  2  0  0  0  0
 11 16  1  0  0  0  0
 12 13  1  0  0  0  0
 13 14  1  0  0  0  0
 14 15  1  0  0  0  0
 15 16  1  0  0  0  0
  7  9  1  0  0  0  0
 15 17  1  1  0  0  0
  8  9  2  0  0  0  0
 17 18  1  0  0  0  0
  3  4  2  0  0  0  0
 13 19  1  0  0  0  0
  9  4  1  0  0  0  0
 12 20  1  1  0  0  0
 17 21  2  0  0  0  0
  8 11  1  0  0  0  0
 18 22  1  0  0  0  0
 22 23  1  0  0  0  0
 23 26  1  0  0  0  0
 25 24  1  0  0  0  0
 24 22  1  0  0  0  0
 25 26  1  0  0  0  0
 25 29  1  0  0  0  0
 26 27  1  0  0  0  0
 27 28  1  0  0  0  0
 28 30  1  0  0  0  0
 29 30  1  0  0  0  0
 30 31  1  0  0  0  0
 31 32  1  0  0  0  0
 32 33  1  0  0  0  0
 33 29  1  0  0  0  0
 25 34  1  6  0  0  0
 29 35  1  1  0  0  0
 23 36  2  0  0  0  0
 28 37  2  0  0  0  0
 27 38  1  6  0  0  0
 22 39  1  1  0  0  0
 39 40  1  0  0  0  0
 39 41  1  0  0  0  0
 11 42  1  6  0  0  0
 44 43  1  0  0  0  0
 45 44  1  0  0  0  0
 44 46  2  0  0  0  0
 44 47  2  0  0  0  0
M  END
> <DRUGBANK_ID>
DB01049

> <DRUG_GROUPS>
approved

> <GENERIC_NAME>
Ergoloid mesylate

> <SYNONYMS>
co-dergocrine mesilate; co-dergocrine mesylate; co-dergocrine methanesulfonate; codergocrine mesilate; codergocrine mesylate; codergocrine methanesulfonate; Dihydroergotoxine Mesilate; Dihydroergotoxine Mesylate; dihydroergotoxine methanesulfonate; Dihydroergotoxine Methanesulfonate; dihydroergotoxine methanesulfonates; dihydroergotoxine monomethanesulfonate; dihydrogenated ergot alkaloids; Ergoloid Mesylates; ergoloid methanesulfonate; ergoloid methanesulfonates; hydrogenated ergot alkaloids

> <BRANDS>
Alkergot; Gerimal; Hydergine; Hydergine LC

> <CHEMICAL_FORMULA>
C30H41N5O8S

> <MOLECULAR_WEIGHT>
631.74

> <EXACT_MASS>
631.267584003

> <IUPAC_NAME>
(2R,4R,7R)-N-[(1S,2S,4R,7S)-2-hydroxy-7-methyl-5,8-dioxo-4-(propan-2-yl)-3-oxa-6,9-diazatricyclo[7.3.0.0^{2,6}]dodecan-4-yl]-6-methyl-6,11-diazatetracyclo[7.6.1.0^{2,7}.0^{12,16}]hexadeca-1(16),9,12,14-tetraene-4-carboxamide; methanesulfonic acid

> <IUPAC_TRADITIONAL_NAME>
(2R,4R,7R)-N-[(1S,2S,4R,7S)-2-hydroxy-4-isopropyl-7-methyl-5,8-dioxo-3-oxa-6,9-diazatricyclo[7.3.0.0^{2,6}]dodecan-4-yl]-6-methyl-6,11-diazatetracyclo[7.6.1.0^{2,7}.0^{12,16}]hexadeca-1(16),9,12,14-tetraene-4-carboxamide; methanesulfonic acid

> <INCHI_IDENTIFIER>
InChI=1S/C29H37N5O5.CH4O3S/c1-15(2)28(27(37)34-16(3)26(36)33-10-6-9-23(33)29(34,38)39-28)31-25(35)18-11-20-19-7-5-8-21-24(19)17(13-30-21)12-22(20)32(4)14-18;1-5(2,3)4/h5,7-8,13,15-16,18,20,22-23,30,38H,6,9-12,14H2,1-4H3,(H,31,35);1H3,(H,2,3,4)/t16-,18+,20+,22+,23-,28+,29-;/m0./s1

> <INCHI_KEY>
InChIKey=FQHMMOGHDWAXDI-WUQHHHCFSA-N

> <SMILES>
CS(O)(=O)=O.[H][C@@]12CCCN1C(=O)[C@H](C)N1C(=O)[C@](NC(=O)[C@H]3CN(C)[C@]4([H])CC5=CNC6=CC=CC(=C56)[C@@]4([H])C3)(O[C@@]21O)C(C)C

> <JCHEM_ACCEPTOR_COUNT>
6

> <JCHEM_DONOR_COUNT>
3

> <JCHEM_ACIDIC_PKA>
9.71

> <JCHEM_BASIC_PKA>
8.39

> <JCHEM_PHYSIOLOGICAL_CHARGE>
1

> <JCHEM_LOGP>
2.17

> <JCHEM_POLARIZABILITY>
57.99

> <JCHEM_POLAR_SURFACE_AREA>
118.21

> <JCHEM_REFRACTIVITY>
143.66

> <JCHEM_ROTATABLE_BOND_COUNT>
3 __ 

$$$$
