
  Mrv0541 02231215522D          

 13 12  0  0  1  0            999 V2000
    7.2849    3.3809    0.0000 N   0  0  0  0  0  0  0  0  0  0  0  0
    7.2849    2.5559    0.0000 C   0  0  1  0  0  0  0  0  0  0  0  0
    6.5704    2.1434    0.0000 C   0  0  0  0  0  0  0  0  0  0  0  0
    5.8559    2.5559    0.0000 C   0  0  0  0  0  0  0  0  0  0  0  0
    5.1414    2.1434    0.0000 C   0  0  0  0  0  0  0  0  0  0  0  0
    4.4270    2.5559    0.0000 C   0  0  0  0  0  0  0  0  0  0  0  0
    3.7125    2.1434    0.0000 B   0  5  0  0  0  0  0  0  0  0  0  0
    2.9980    1.7309    0.0000 O   0  0  0  0  0  0  0  0  0  0  0  0
    4.1250    1.4289    0.0000 O   0  0  0  0  0  0  0  0  0  0  0  0
    3.3000    2.8579    0.0000 O   0  0  0  0  0  0  0  0  0  0  0  0
    7.9993    2.1434    0.0000 C   0  0  0  0  0  0  0  0  0  0  0  0
    8.7138    2.5559    0.0000 O   0  0  0  0  0  0  0  0  0  0  0  0
    7.9993    1.3184    0.0000 O   0  0  0  0  0  0  0  0  0  0  0  0
  2  1  1  6  0  0  0
  2  3  1  0  0  0  0
  3  4  1  0  0  0  0
  4  5  1  0  0  0  0
  5  6  1  0  0  0  0
  6  7  1  0  0  0  0
  7  8  1  0  0  0  0
  7  9  1  0  0  0  0
  7 10  1  0  0  0  0
  2 11  1  0  0  0  0
 11 12  1  0  0  0  0
 11 13  2  0  0  0  0
M  END
> <DRUGBANK_ID>
DB01983

> <DRUG_GROUPS>
experimental

> <GENERIC_NAME>
2(S)-Amino-6-Boronohexanoic Acid

> <CHEMICAL_FORMULA>
C6H15BNO5

> <MOLECULAR_WEIGHT>
191.998

> <EXACT_MASS>
192.104328061

> <IUPAC_NAME>
[(5S)-5-amino-5-carboxypentyl]trihydroxyboranuide

> <IUPAC_TRADITIONAL_NAME>
[(5S)-5-amino-5-carboxypentyl]trihydroxyboranuide

> <INCHI_IDENTIFIER>
InChI=1S/C6H15BNO5/c8-5(6(9)10)3-1-2-4-7(11,12)13/h5,11-13H,1-4,8H2,(H,9,10)/q-1/t5-/m0/s1

> <INCHI_KEY>
InChIKey=BLVGFZFOWWBCCZ-YFKPBYRVSA-N

> <SMILES>
N[C@@H](CCCC[B-](O)(O)O)C(O)=O

> <JCHEM_ACCEPTOR_COUNT>
6

> <JCHEM_DONOR_COUNT>
5

> <JCHEM_ACIDIC_PKA>
1.9

> <JCHEM_BASIC_PKA>
9.53

> <JCHEM_PHYSIOLOGICAL_CHARGE>
-1

> <ALOGPS_LOGP>
-2.9

> <JCHEM_LOGP>
-5

> <ALOGPS_LOGS>
-1.9

> <JCHEM_POLARIZABILITY>
19.64

> <JCHEM_POLAR_SURFACE_AREA>
124.01

> <JCHEM_REFRACTIVITY>
40.88

> <JCHEM_ROTATABLE_BOND_COUNT>
6

> <ALOGPS_SOLUBILITY>
2.83e+00 g/l __ 

$$$$
