
  Mrv0541 02231215472D          

 15 15  0  0  1  0            999 V2000
    2.8579    2.4750    0.0000 C   0  0  0  0  0  0  0  0  0  0  0  0
    2.1434    2.0625    0.0000 C   0  0  0  0  0  0  0  0  0  0  0  0
    1.4289    2.4750    0.0000 C   0  0  0  0  0  0  0  0  0  0  0  0
    2.1434    1.2375    0.0000 S   0  0  0  0  0  0  0  0  0  0  0  0
    1.4289    0.8250    0.0000 C   0  0  2  0  0  0  0  0  0  0  0  0
    1.4289    0.0000    0.0000 O   0  0  0  0  0  0  0  0  0  0  0  0
    0.7145   -0.4125    0.0000 C   0  0  2  0  0  0  0  0  0  0  0  0
    0.7145   -1.2375    0.0000 C   0  0  0  0  0  0  0  0  0  0  0  0
    1.4289   -1.6500    0.0000 O   0  0  0  0  0  0  0  0  0  0  0  0
    0.0000    0.0000    0.0000 C   0  0  1  0  0  0  0  0  0  0  0  0
   -0.7145   -0.4125    0.0000 O   0  0  0  0  0  0  0  0  0  0  0  0
    0.0000    0.8250    0.0000 C   0  0  2  0  0  0  0  0  0  0  0  0
   -0.7145    1.2375    0.0000 O   0  0  0  0  0  0  0  0  0  0  0  0
    0.7145    1.2375    0.0000 C   0  0  1  0  0  0  0  0  0  0  0  0
    0.7145    2.0625    0.0000 O   0  0  0  0  0  0  0  0  0  0  0  0
  1  2  1  0  0  0  0
  2  3  1  0  0  0  0
  2  4  1  0  0  0  0
  5  4  1  6  0  0  0
  5  6  1  0  0  0  0
  6  7  1  0  0  0  0
  7  8  1  6  0  0  0
  8  9  1  0  0  0  0
  7 10  1  0  0  0  0
 10 11  1  1  0  0  0
 10 12  1  0  0  0  0
 12 13  1  6  0  0  0
 12 14  1  0  0  0  0
  5 14  1  0  0  0  0
 14 15  1  1  0  0  0
M  END
> <DRUGBANK_ID>
DB01862

> <DRUG_GROUPS>
experimental

> <GENERIC_NAME>
1-(Isopropylthio)-Beta-Galactopyranside

> <CHEMICAL_FORMULA>
C9H18O5S

> <MOLECULAR_WEIGHT>
238.301

> <EXACT_MASS>
238.087494376

> <IUPAC_NAME>
(2R,3S,4S,5R,6S)-2-(hydroxymethyl)-6-(propan-2-ylsulfanyl)oxane-3,4,5-triol

> <IUPAC_TRADITIONAL_NAME>
(2R,3S,4S,5R,6S)-2-(hydroxymethyl)-6-(isopropylsulfanyl)oxane-3,4,5-triol

> <INCHI_IDENTIFIER>
InChI=1S/C9H18O5S/c1-4(2)15-9-8(13)7(12)6(11)5(3-10)14-9/h4-13H,3H2,1-2H3/t5-,6-,7+,8-,9+/m1/s1

> <INCHI_KEY>
InChIKey=BPHPUYQFMNQIOC-ZEBDFXRSSA-N

> <SMILES>
CC(C)S[C@@H]1O[C@H](CO)[C@@H](O)[C@H](O)[C@H]1O

> <JCHEM_ACCEPTOR_COUNT>
5

> <JCHEM_DONOR_COUNT>
4

> <JCHEM_ACIDIC_PKA>
12.48

> <JCHEM_BASIC_PKA>
-3

> <JCHEM_PHYSIOLOGICAL_CHARGE>
0

> <ALOGPS_LOGP>
-1.1

> <JCHEM_LOGP>
-1

> <ALOGPS_LOGS>
-0.27

> <JCHEM_POLARIZABILITY>
24.41

> <JCHEM_POLAR_SURFACE_AREA>
90.15

> <JCHEM_REFRACTIVITY>
56.06

> <JCHEM_ROTATABLE_BOND_COUNT>
3

> <ALOGPS_SOLUBILITY>
1.28e+02 g/l __ 

$$$$
