 
  Mrv0541 02231215122D          
 
 44 47  0  0  1  0            999 V2000
   14.8883   -8.3120    0.0000 C   0  0  0  0  0  0  0  0  0  0  0  0
   14.8883   -9.1437    0.0000 C   0  0  0  0  0  0  0  0  0  0  0  0
   14.1700   -7.8998    0.0000 C   0  0  0  0  0  0  0  0  0  0  0  0
   15.6105   -7.8885    0.0000 O   0  0  0  0  0  0  0  0  0  0  0  0
   15.6143   -9.5596    0.0000 C   0  0  0  0  0  0  0  0  0  0  0  0
   14.1700   -9.5634    0.0000 C   0  0  0  0  0  0  0  0  0  0  0  0
   13.4554   -8.3120    0.0000 C   0  0  0  0  0  0  0  0  0  0  0  0
   14.1662   -7.0794    0.0000 C   0  0  0  0  0  0  0  0  0  0  0  0
   16.3782   -8.3044    0.0000 C   0  0  0  0  0  0  0  0  0  0  0  0
   16.3440   -9.1475    0.0000 C   0  0  0  0  0  0  0  0  0  0  0  0
   15.6143  -10.3839    0.0000 O   0  0  0  0  0  0  0  0  0  0  0  0
   13.4554   -9.1437    0.0000 C   0  0  0  0  0  0  0  0  0  0  0  0
   12.7445   -7.9037    0.0000 O   0  0  0  0  0  0  0  0  0  0  0  0
   17.0472   -7.8923    0.0000 O   0  0  0  0  0  0  0  0  0  0  0  0
   17.3044   -9.5067    0.0000 N   0  0  0  0  0  0  0  0  0  0  0  0
   12.0339   -8.3157    0.0000 C   0  0  1  0  0  0  0  0  0  0  0  0
   18.0189   -9.0947    0.0000 C   0  0  0  0  0  0  0  0  0  0  0  0
   12.0339   -9.1475    0.0000 C   0  0  1  0  0  0  0  0  0  0  0  0
   11.3116   -7.9037    0.0000 O   0  0  0  0  0  0  0  0  0  0  0  0
   18.7297   -9.5067    0.0000 C   0  0  0  0  0  0  0  0  0  0  0  0
   18.0189   -8.2742    0.0000 O   0  0  0  0  0  0  0  0  0  0  0  0
   11.3116   -9.5672    0.0000 C   0  0  1  0  0  0  0  0  0  0  0  0
   12.7484   -9.5559    0.0000 O   0  0  0  0  0  0  0  0  0  0  0  0
   10.6009   -8.3157    0.0000 C   0  0  0  0  0  0  0  0  0  0  0  0
   18.7335  -10.3308    0.0000 C   0  0  0  0  0  0  0  0  0  0  0  0
   19.4367   -9.0984    0.0000 C   0  0  0  0  0  0  0  0  0  0  0  0
   10.6009   -9.1475    0.0000 C   0  0  2  0  0  0  0  0  0  0  0  0
   11.3116  -10.3914    0.0000 O   0  0  0  0  0  0  0  0  0  0  0  0
   10.1094   -7.4612    0.0000 C   0  0  0  0  0  0  0  0  0  0  0  0
    9.7502   -8.4821    0.0000 C   0  0  0  0  0  0  0  0  0  0  0  0
   19.4405  -10.7430    0.0000 C   0  0  0  0  0  0  0  0  0  0  0  0
   20.1513   -9.5029    0.0000 C   0  0  0  0  0  0  0  0  0  0  0  0
    9.8863   -9.5559    0.0000 O   0  0  0  0  0  0  0  0  0  0  0  0
   10.5971  -10.7997    0.0000 C   0  0  0  0  0  0  0  0  0  0  0  0
   20.1551  -10.3271    0.0000 C   0  0  0  0  0  0  0  0  0  0  0  0
   19.4405  -11.5672    0.0000 C   0  0  0  0  0  0  0  0  0  0  0  0
    9.0469   -9.5596    0.0000 C   0  0  0  0  0  0  0  0  0  0  0  0
   10.5934  -11.6202    0.0000 N   0  0  0  0  0  0  0  0  0  0  0  0
    9.8863  -10.3877    0.0000 O   0  0  0  0  0  0  0  0  0  0  0  0
   20.8658  -10.7355    0.0000 O   0  0  0  0  0  0  0  0  0  0  0  0
   20.1551  -11.9794    0.0000 C   0  0  0  0  0  0  0  0  0  0  0  0
   20.1551  -12.7998    0.0000 C   0  0  0  0  0  0  0  0  0  0  0  0
   20.8658  -13.2119    0.0000 C   0  0  0  0  0  0  0  0  0  0  0  0
   19.4405  -13.2119    0.0000 C   0  0  0  0  0  0  0  0  0  0  0  0
  1  2  2  0  0  0  0
  1  3  1  0  0  0  0
  1  4  1  0  0  0  0
  2  5  1  0  0  0  0
  2  6  1  0  0  0  0
  3  7  2  0  0  0  0
  3  8  1  0  0  0  0
  4  9  1  0  0  0  0
  5 10  2  0  0  0  0
  5 11  1  0  0  0  0
  6 12  2  0  0  0  0
  7 13  1  0  0  0  0
  9 14  2  0  0  0  0
 10 15  1  0  0  0  0
 16 13  1  1  0  0  0
 15 17  1  0  0  0  0
 16 18  1  0  0  0  0
 16 19  1  0  0  0  0
 17 20  1  0  0  0  0
 17 21  2  0  0  0  0
 18 22  1  0  0  0  0
 18 23  1  6  0  0  0
 19 24  1  0  0  0  0
 20 25  1  0  0  0  0
 20 26  2  0  0  0  0
 22 27  1  0  0  0  0
 22 28  1  6  0  0  0
 24 29  1  0  0  0  0
 24 30  1  0  0  0  0
 25 31  2  0  0  0  0
 26 32  1  0  0  0  0
 27 33  1  1  0  0  0
 28 34  1  0  0  0  0
 31 35  1  0  0  0  0
 31 36  1  0  0  0  0
 33 37  1  0  0  0  0
 34 38  1  0  0  0  0
 34 39  2  0  0  0  0
 35 40  1  0  0  0  0
 36 41  1  0  0  0  0
 41 42  2  0  0  0  0
 42 43  1  0  0  0  0
 42 44  1  0  0  0  0
  7 12  1  0  0  0  0
  9 10  1  0  0  0  0
 24 27  1  0  0  0  0
 32 35  2  0  0  0  0
M  END
> <DRUGBANK_ID>
DB01051

> <DRUG_GROUPS>
approved

> <GENERIC_NAME>
Novobiocin

> <SYNONYMS>
Novobiocina; Novobiocine; Novobiocinum

> <SALTS>
Novobiocin sodium

> <BRANDS>


> <CHEMICAL_FORMULA>
C31H36N2O11

> <MOLECULAR_WEIGHT>
612.6243

> <EXACT_MASS>
612.231910004

> <IUPAC_NAME>
(3R,4S,5R,6R)-5-hydroxy-6-[(4-hydroxy-3-{[4-hydroxy-3-(3-methylbut-2-en-1-yl)benzene]amido}-8-methyl-2-oxo-2H-chromen-7-yl)oxy]-3-methoxy-2,2-dimethyloxan-4-yl carbamate

> <IUPAC_TRADITIONAL_NAME>
(3R,4S,5R,6R)-5-hydroxy-6-({4-hydroxy-3-[4-hydroxy-3-(3-methylbut-2-en-1-yl)benzamido]-8-methyl-2-oxochromen-7-yl}oxy)-3-methoxy-2,2-dimethyloxan-4-yl carbamate

> <INCHI_IDENTIFIER>
InChI=1S/C31H36N2O11/c1-14(2)7-8-16-13-17(9-11-19(16)34)27(37)33-21-22(35)18-10-12-20(15(3)24(18)42-28(21)38)41-29-23(36)25(43-30(32)39)26(40-6)31(4,5)44-29/h7,9-13,23,25-26,29,34-36H,8H2,1-6H3,(H2,32,39)(H,33,37)/t23-,25+,26-,29-/m1/s1

> <INCHI_KEY>
InChIKey=YJQPYGGHQPGBLI-KGSXXDOSSA-N

> <SMILES>
CO[C@@H]1[C@@H](OC(N)=O)[C@@H](O)[C@H](OC2=C(C)C3=C(C=C2)C(O)=C(NC(=O)C2=CC=C(O)C(CC=C(C)C)=C2)C(=O)O3)OC1(C)C

> <JCHEM_ACCEPTOR_COUNT>
9

> <JCHEM_DONOR_COUNT>
5

> <JCHEM_ACIDIC_PKA>
6.96

> <JCHEM_BASIC_PKA>
-3.9

> <JCHEM_PHYSIOLOGICAL_CHARGE>
-1

> <ALOGPS_LOGP>
3.07

> <JCHEM_LOGP>
3.26

> <ALOGPS_LOGS>
-4.8

> <JCHEM_POLARIZABILITY>
63.97

> <JCHEM_POLAR_SURFACE_AREA>
196.1

> <JCHEM_REFRACTIVITY>
158.24

> <JCHEM_ROTATABLE_BOND_COUNT>
9

> <ALOGPS_SOLUBILITY>
9.66e-03 g/l __ 

$$$$
