
  Mrv0541 02231215382D          

 10 11  0  0  0  0            999 V2000
   -0.1712   -0.6979    0.0000 N   0  0  0  0  0  0  0  0  0  0  0  0
    0.6538   -0.6979    0.0000 C   0  0  0  0  0  0  0  0  0  0  0  0
    1.1387   -0.0305    0.0000 N   0  0  0  0  0  0  0  0  0  0  0  0
    1.9233   -0.2854    0.0000 C   0  0  0  0  0  0  0  0  0  0  0  0
    2.6378    0.1271    0.0000 C   0  0  0  0  0  0  0  0  0  0  0  0
    3.3523   -0.2854    0.0000 C   0  0  0  0  0  0  0  0  0  0  0  0
    3.3523   -1.1104    0.0000 C   0  0  0  0  0  0  0  0  0  0  0  0
    2.6378   -1.5229    0.0000 C   0  0  0  0  0  0  0  0  0  0  0  0
    1.9233   -1.1104    0.0000 C   0  0  0  0  0  0  0  0  0  0  0  0
    1.1387   -1.3654    0.0000 N   0  0  0  0  0  0  0  0  0  0  0  0
  1  2  1  0  0  0  0
  2  3  1  0  0  0  0
  3  4  2  0  0  0  0
  4  5  1  0  0  0  0
  5  6  2  0  0  0  0
  6  7  1  0  0  0  0
  7  8  2  0  0  0  0
  8  9  1  0  0  0  0
  4  9  1  0  0  0  0
  9 10  2  0  0  0  0
  2 10  1  0  0  0  0
M  END
> <DRUGBANK_ID>
DB01665

> <DRUG_GROUPS>
experimental

> <GENERIC_NAME>
ZK-800270

> <SYNONYMS>


> <CHEMICAL_FORMULA>
C7H7N3

> <MOLECULAR_WEIGHT>
133.1506

> <EXACT_MASS>
133.063997239

> <IUPAC_NAME>
2H-1,3-benzodiazol-2-amine

> <IUPAC_TRADITIONAL_NAME>
2H-1,3-benzodiazol-2-amine

> <INCHI_IDENTIFIER>
InChI=1S/C7H7N3/c8-7-9-5-3-1-2-4-6(5)10-7/h1-4,7H,8H2

> <INCHI_KEY>
InChIKey=DERVZEOWPBCBHO-UHFFFAOYSA-N

> <SMILES>
NC1N=C2C=CC=CC2=N1

> <JCHEM_ACCEPTOR_COUNT>
3

> <JCHEM_DONOR_COUNT>
1

> <JCHEM_ACIDIC_PKA>
14.86

> <JCHEM_BASIC_PKA>
3.29

> <JCHEM_PHYSIOLOGICAL_CHARGE>
0

> <ALOGPS_LOGP>
-0.19

> <JCHEM_LOGP>
1.55

> <ALOGPS_LOGS>
-1.8

> <JCHEM_POLARIZABILITY>
13.6

> <JCHEM_POLAR_SURFACE_AREA>
50.74

> <JCHEM_REFRACTIVITY>
41.31

> <JCHEM_ROTATABLE_BOND_COUNT>
0

> <ALOGPS_SOLUBILITY>
1.95e+00 g/l __ 

$$$$
