
  Mrv0541 02231215512D          

 55 57  0  0  1  0            999 V2000
    2.2593    0.2865    0.0000 C   0  0  0  0  0  0  0  0  0  0  0  0
    1.8886    1.0236    0.0000 C   0  0  0  0  0  0  0  0  0  0  0  0
    1.5180    1.7606    0.0000 C   0  0  0  0  0  0  0  0  0  0  0  0
    1.1516    0.6529    0.0000 C   0  0  0  0  0  0  0  0  0  0  0  0
    0.4621    1.1059    0.0000 O   0  0  0  0  0  0  0  0  0  0  0  0
   -0.2750    0.7353    0.0000 P   0  0  2  0  0  0  0  0  0  0  0  0
    0.0956   -0.0018    0.0000 O   0  0  0  0  0  0  0  0  0  0  0  0
   -0.6456    1.4724    0.0000 O   0  0  0  0  0  0  0  0  0  0  0  0
   -1.0121    0.3647    0.0000 O   0  0  0  0  0  0  0  0  0  0  0  0
   -1.7016    0.8177    0.0000 P   0  0  1  0  0  0  0  0  0  0  0  0
   -2.1546    0.1282    0.0000 O   0  0  0  0  0  0  0  0  0  0  0  0
   -1.2486    1.5072    0.0000 O   0  0  0  0  0  0  0  0  0  0  0  0
   -2.3911    1.2707    0.0000 O   0  0  0  0  0  0  0  0  0  0  0  0
   -3.1281    0.9000    0.0000 C   0  0  0  0  0  0  0  0  0  0  0  0
   -3.8176    1.3530    0.0000 C   0  0  2  0  0  0  0  0  0  0  0  0
   -4.5894    1.0615    0.0000 O   0  0  0  0  0  0  0  0  0  0  0  0
   -5.1052    1.7054    0.0000 C   0  0  2  0  0  0  0  0  0  0  0  0
   -4.6522    2.3949    0.0000 C   0  0  2  0  0  0  0  0  0  0  0  0
   -4.9437    3.1666    0.0000 O   0  0  0  0  0  0  0  0  0  0  0  0
   -3.8564    2.1771    0.0000 C   0  0  1  0  0  0  0  0  0  0  0  0
   -3.2126    2.6929    0.0000 O   0  0  0  0  0  0  0  0  0  0  0  0
   -2.4439    2.3931    0.0000 P   0  0  0  0  0  0  0  0  0  0  0  0
   -2.7437    1.6245    0.0000 O   0  0  0  0  0  0  0  0  0  0  0  0
   -2.1442    3.1618    0.0000 O   0  0  0  0  0  0  0  0  0  0  0  0
   -1.6753    2.0934    0.0000 O   0  0  0  0  0  0  0  0  0  0  0  0
   -5.9293    1.6666    0.0000 N   0  0  0  0  0  0  0  0  0  0  0  0
   -6.4450    2.3105    0.0000 C   0  0  0  0  0  0  0  0  0  0  0  0
   -7.2168    2.0189    0.0000 N   0  0  0  0  0  0  0  0  0  0  0  0
   -7.1780    1.1948    0.0000 C   0  0  0  0  0  0  0  0  0  0  0  0
   -6.3823    0.9771    0.0000 C   0  0  0  0  0  0  0  0  0  0  0  0
   -6.1730    0.1790    0.0000 N   0  0  0  0  0  0  0  0  0  0  0  0
   -6.7594   -0.4012    0.0000 C   0  0  0  0  0  0  0  0  0  0  0  0
   -7.5552   -0.1835    0.0000 N   0  0  0  0  0  0  0  0  0  0  0  0
   -7.7645    0.6145    0.0000 C   0  0  0  0  0  0  0  0  0  0  0  0
   -8.5602    0.8323    0.0000 N   0  0  0  0  0  0  0  0  0  0  0  0
    2.6257    1.3942    0.0000 C   0  0  1  0  0  0  0  0  0  0  0  0
    2.6732    2.2178    0.0000 O   0  0  0  0  0  0  0  0  0  0  0  0
    3.3152    0.9412    0.0000 C   0  0  0  0  0  0  0  0  0  0  0  0
    3.2676    0.1176    0.0000 O   0  0  0  0  0  0  0  0  0  0  0  0
    4.0522    1.3118    0.0000 N   0  0  0  0  0  0  0  0  0  0  0  0
    4.7418    0.8588    0.0000 C   0  0  0  0  0  0  0  0  0  0  0  0
    5.4788    1.2295    0.0000 C   0  0  0  0  0  0  0  0  0  0  0  0
    6.1683    0.7765    0.0000 C   0  0  0  0  0  0  0  0  0  0  0  0
    6.1208   -0.0471    0.0000 O   0  0  0  0  0  0  0  0  0  0  0  0
    6.9054    1.1471    0.0000 N   0  0  0  0  0  0  0  0  0  0  0  0
    7.5949    0.6941    0.0000 C   0  0  0  0  0  0  0  0  0  0  0  0
    8.3319    1.0648    0.0000 C   0  0  0  0  0  0  0  0  0  0  0  0
    9.0215    0.6118    0.0000 S   0  0  0  0  0  0  0  0  0  0  0  0
    9.7585    0.9824    0.0000 C   0  0  0  0  0  0  0  0  0  0  0  0
   10.4480    0.5294    0.0000 C   0  0  0  0  0  0  0  0  0  0  0  0
   10.4005   -0.2942    0.0000 O   0  0  0  0  0  0  0  0  0  0  0  0
   11.1851    0.9000    0.0000 C   0  0  0  0  0  0  0  0  0  0  0  0
   11.9221    1.2707    0.0000 F   0  0  0  0  0  0  0  0  0  0  0  0
   11.5557    0.1630    0.0000 F   0  0  0  0  0  0  0  0  0  0  0  0
   10.8144    1.6371    0.0000 F   0  0  0  0  0  0  0  0  0  0  0  0
  1  2  1  0  0  0  0
  2  3  1  0  0  0  0
  2  4  1  0  0  0  0
  4  5  1  0  0  0  0
  6  5  1  1  0  0  0
  6  7  1  6  0  0  0
  6  8  2  0  0  0  0
  6  9  1  0  0  0  0
 10  9  1  6  0  0  0
 10 11  1  1  0  0  0
 10 12  2  0  0  0  0
 10 13  1  0  0  0  0
 13 14  1  0  0  0  0
 15 14  1  6  0  0  0
 15 16  1  0  0  0  0
 16 17  1  0  0  0  0
 17 18  1  0  0  0  0
 18 19  1  6  0  0  0
 18 20  1  0  0  0  0
 15 20  1  0  0  0  0
 20 21  1  1  0  0  0
 21 22  1  0  0  0  0
 22 23  1  0  0  0  0
 22 24  1  0  0  0  0
 22 25  2  0  0  0  0
 17 26  1  1  0  0  0
 26 27  1  0  0  0  0
 27 28  2  0  0  0  0
 28 29  1  0  0  0  0
 29 30  2  0  0  0  0
 26 30  1  0  0  0  0
 30 31  1  0  0  0  0
 31 32  2  0  0  0  0
 32 33  1  0  0  0  0
 33 34  2  0  0  0  0
 29 34  1  0  0  0  0
 34 35  1  0  0  0  0
  2 36  1  0  0  0  0
 36 37  1  1  0  0  0
 36 38  1  0  0  0  0
 38 39  2  0  0  0  0
 38 40  1  0  0  0  0
 40 41  1  0  0  0  0
 41 42  1  0  0  0  0
 42 43  1  0  0  0  0
 43 44  2  0  0  0  0
 43 45  1  0  0  0  0
 45 46  1  0  0  0  0
 46 47  1  0  0  0  0
 47 48  1  0  0  0  0
 48 49  1  0  0  0  0
 49 50  1  0  0  0  0
 50 51  2  0  0  0  0
 50 52  1  0  0  0  0
 52 53  1  0  0  0  0
 52 54  1  0  0  0  0
 52 55  1  0  0  0  0
M  END
> <DRUGBANK_ID>
DB01969

> <DRUG_GROUPS>
experimental

> <GENERIC_NAME>
Trifluoroacetonyl Coenzyme A

> <CHEMICAL_FORMULA>
C24H37F3N7O17P3S

> <MOLECULAR_WEIGHT>
877.569

> <EXACT_MASS>
877.113157634

> <IUPAC_NAME>
{[(2S,3R,4R,5R)-5-(6-amino-9H-purin-9-yl)-4-hydroxy-2-({[hydroxy({hydroxy[(3R)-3-hydroxy-2,2-dimethyl-3-{[2-({2-[(3,3,3-trifluoro-2-oxopropyl)sulfanyl]ethyl}carbamoyl)ethyl]carbamoyl}propoxy]phosphoryl}oxy)phosphoryl]oxy}methyl)oxolan-3-yl]oxy}phosphonic acid

> <IUPAC_TRADITIONAL_NAME>
[(2S,3R,4R,5R)-5-(6-aminopurin-9-yl)-4-hydroxy-2-[({hydroxy[hydroxy(3R)-3-hydroxy-2,2-dimethyl-3-{[2-({2-[(3,3,3-trifluoro-2-oxopropyl)sulfanyl]ethyl}carbamoyl)ethyl]carbamoyl}propoxyphosphoryl]oxyphosphoryl}oxy)methyl]oxolan-3-yl]oxyphosphonic acid

> <INCHI_IDENTIFIER>
InChI=1S/C24H37F3N7O17P3S/c1-23(2,18(38)21(39)30-4-3-14(36)29-5-6-55-8-13(35)24(25,26)27)9-48-54(45,46)51-53(43,44)47-7-12-17(50-52(40,41)42)16(37)22(49-12)34-11-33-15-19(28)31-10-32-20(15)34/h10-12,16-18,22,37-38H,3-9H2,1-2H3,(H,29,36)(H,30,39)(H,43,44)(H,45,46)(H2,28,31,32)(H2,40,41,42)/t12-,16+,17-,18-,22+/m0/s1

> <INCHI_KEY>
InChIKey=XDIQTPZOIIYCTR-DBXDFDKESA-N

> <SMILES>
CC(C)(CO[P@](O)(=O)O[P@@](O)(=O)OC[C@@H]1O[C@H]([C@H](O)[C@H]1OP(O)(O)=O)N1C=NC2=C1N=CN=C2N)[C@@H](O)C(=O)NCCC(=O)NCCSCC(=O)C(F)(F)F

> <JCHEM_ACCEPTOR_COUNT>
17

> <JCHEM_DONOR_COUNT>
9

> <JCHEM_ACIDIC_PKA>
0.83

> <JCHEM_BASIC_PKA>
4.95

> <JCHEM_PHYSIOLOGICAL_CHARGE>
-4

> <ALOGPS_LOGP>
0.21

> <JCHEM_LOGP>
-5.8

> <ALOGPS_LOGS>
-2.3

> <JCHEM_POLARIZABILITY>
74.01

> <JCHEM_POLAR_SURFACE_AREA>
363.63

> <JCHEM_REFRACTIVITY>
178.18

> <JCHEM_ROTATABLE_BOND_COUNT>
22

> <ALOGPS_SOLUBILITY>
4.21e+00 g/l __ 

$$$$
