1060
  Mrv0541 02231215122D          

 26 28  0  0  1  0            999 V2000
    8.7784    0.6772    0.0000 S   0  0  0  0  0  0  0  0  0  0  0  0
    6.5797   -0.9907    0.0000 O   0  0  0  0  0  0  0  0  0  0  0  0
    8.4813   -2.0553    0.0000 O   0  0  0  0  0  0  0  0  0  0  0  0
    9.8403   -1.6138    0.0000 O   0  0  0  0  0  0  0  0  0  0  0  0
    5.5673    0.0020    0.0000 O   0  0  0  0  0  0  0  0  0  0  0  0
    2.0109    0.5354    0.0000 O   0  0  0  0  0  0  0  0  0  0  0  0
    7.9938   -0.4027    0.0000 N   0  0  0  0  0  0  0  0  0  0  0  0
    6.5797    1.0103    0.0000 N   0  0  0  0  0  0  0  0  0  0  0  0
    5.4154    2.1794    0.0000 N   0  0  0  0  0  0  0  0  0  0  0  0
    7.9938    0.4223    0.0000 C   0  0  1  0  0  0  0  0  0  0  0  0
    9.2633    0.0098    0.0000 C   0  0  0  0  0  0  0  0  0  0  0  0
    8.7784   -0.6576    0.0000 C   0  0  2  0  0  0  0  0  0  0  0  0
    7.1619    0.4257    0.0000 C   0  0  1  0  0  0  0  0  0  0  0  0
    7.1619   -0.4061    0.0000 C   0  0  0  0  0  0  0  0  0  0  0  0
    9.9307   -0.4751    0.0000 C   0  0  0  0  0  0  0  0  0  0  0  0
    9.9307    0.4948    0.0000 C   0  0  0  0  0  0  0  0  0  0  0  0
    9.0333   -1.4423    0.0000 C   0  0  0  0  0  0  0  0  0  0  0  0
    5.7825    0.7984    0.0000 C   0  0  0  0  0  0  0  0  0  0  0  0
    5.2002    1.3830    0.0000 C   0  0  1  0  0  0  0  0  0  0  0  0
    4.4030    1.1711    0.0000 C   0  0  0  0  0  0  0  0  0  0  0  0
    4.1878    0.3746    0.0000 C   0  0  0  0  0  0  0  0  0  0  0  0
    3.8208    1.7556    0.0000 C   0  0  0  0  0  0  0  0  0  0  0  0
    3.3904    0.1627    0.0000 C   0  0  0  0  0  0  0  0  0  0  0  0
    3.0235    1.5437    0.0000 C   0  0  0  0  0  0  0  0  0  0  0  0
    2.8083    0.7473    0.0000 C   0  0  0  0  0  0  0  0  0  0  0  0
    7.8918    1.0744    0.0000 H   0  0  0  0  0  0  0  0  0  0  0  0
  1 10  1  0  0  0  0
  1 11  1  0  0  0  0
  2 14  2  0  0  0  0
  3 17  1  0  0  0  0
  4 17  2  0  0  0  0
  5 18  2  0  0  0  0
  6 25  1  0  0  0  0
  7 10  1  0  0  0  0
  7 12  1  0  0  0  0
  7 14  1  0  0  0  0
 13  8  1  1  0  0  0
  8 18  1  0  0  0  0
 19  9  1  1  0  0  0
 10 13  1  0  0  0  0
 10 26  1  6  0  0  0
 11 12  1  0  0  0  0
 11 15  1  0  0  0  0
 11 16  1  0  0  0  0
 12 17  1  6  0  0  0
 13 14  1  0  0  0  0
 18 19  1  0  0  0  0
 19 20  1  0  0  0  0
 20 21  2  0  0  0  0
 20 22  1  0  0  0  0
 21 23  1  0  0  0  0
 22 24  2  0  0  0  0
 23 25  2  0  0  0  0
 24 25  1  0  0  0  0
M  END
> <DRUGBANK_ID>
DB01060

> <DRUG_GROUPS>
approved

> <GENERIC_NAME>
Amoxicillin

> <SYNONYMS>
6-(p-hydroxy-α-aminophenylacetamido)penicillanic acid; Amox; Amoxicilina; Amoxicillin anhydrous; Amoxicilline; Amoxicillinum; Amoxycillin; AMPC; p-Hydroxyampicillin; α-amino-p-hydroxybenzylpenicillin

> <SALTS>
Amoxicillin sodium; Amoxycillin trihydrate

> <BRANDS>
Actimoxi; Amoclen; Amolin; Amopen; Amopenixin; Amoxibiotic; Amoxil; AMPC; Apo-Amoxi; Clamoxyl; Dispermox; Efpenix; Flemoxin; Hiconcil; Ibiamox; Imacillin; Moxacin; Moxal; Ospamox; Pamoxicillin; Polymox; Trimox; Wymox

> <CHEMICAL_FORMULA>
C16H19N3O5S

> <MOLECULAR_WEIGHT>
365.404

> <EXACT_MASS>
365.104541423

> <IUPAC_NAME>
(2S,5R,6R)-6-[(2R)-2-amino-2-(4-hydroxyphenyl)acetamido]-3,3-dimethyl-7-oxo-4-thia-1-azabicyclo[3.2.0]heptane-2-carboxylic acid

> <IUPAC_TRADITIONAL_NAME>
amoxicillin

> <INCHI_IDENTIFIER>
InChI=1S/C16H19N3O5S/c1-16(2)11(15(23)24)19-13(22)10(14(19)25-16)18-12(21)9(17)7-3-5-8(20)6-4-7/h3-6,9-11,14,20H,17H2,1-2H3,(H,18,21)(H,23,24)/t9-,10-,11+,14-/m1/s1

> <INCHI_KEY>
InChIKey=LSQZJLSUYDQPKJ-NJBDSQKTSA-N

> <SMILES>
[H][C@]12SC(C)(C)[C@@H](N1C(=O)[C@H]2NC(=O)[C@H](N)C1=CC=C(O)C=C1)C(O)=O

> <JCHEM_ACCEPTOR_COUNT>
6

> <JCHEM_DONOR_COUNT>
4

> <JCHEM_ACIDIC_PKA>
3.23

> <JCHEM_BASIC_PKA>
7.43

> <JCHEM_PHYSIOLOGICAL_CHARGE>
0

> <ALOGPS_LOGP>
0.75

> <JCHEM_LOGP>
-2.3

> <ALOGPS_LOGS>
-2.6

> <JCHEM_POLARIZABILITY>
35.53

> <JCHEM_POLAR_SURFACE_AREA>
132.96

> <JCHEM_REFRACTIVITY>
89.5

> <JCHEM_ROTATABLE_BOND_COUNT>
4

> <ALOGPS_SOLUBILITY>
9.58e-01 g/l __ 

$$$$
