
  Mrv0541 02231215432D          

 66 70  0  0  1  0            999 V2000
   23.8564   -6.3938    0.0000 C   0  0  0  0  0  0  0  0  0  0  0  0
   23.4439   -5.6793    0.0000 C   0  0  0  0  0  0  0  0  0  0  0  0
   23.0314   -4.9648    0.0000 C   0  0  0  0  0  0  0  0  0  0  0  0
   22.7294   -6.0918    0.0000 C   0  0  0  0  0  0  0  0  0  0  0  0
   22.0149   -5.6793    0.0000 O   0  0  0  0  0  0  0  0  0  0  0  0
   21.3005   -6.0918    0.0000 P   0  0  2  0  0  0  0  0  0  0  0  0
   21.7130   -6.8063    0.0000 O   0  0  0  0  0  0  0  0  0  0  0  0
   20.8880   -5.3773    0.0000 O   0  0  0  0  0  0  0  0  0  0  0  0
   20.5860   -6.5043    0.0000 O   0  0  0  0  0  0  0  0  0  0  0  0
   19.8715   -6.0918    0.0000 P   0  0  1  0  0  0  0  0  0  0  0  0
   19.4590   -6.8063    0.0000 O   0  0  0  0  0  0  0  0  0  0  0  0
   20.2840   -5.3773    0.0000 O   0  0  0  0  0  0  0  0  0  0  0  0
   19.1571   -5.6793    0.0000 O   0  0  0  0  0  0  0  0  0  0  0  0
   18.4426   -6.0918    0.0000 C   0  0  0  0  0  0  0  0  0  0  0  0
   17.7281   -5.6793    0.0000 C   0  0  2  0  0  0  0  0  0  0  0  0
   16.9744   -6.0149    0.0000 O   0  0  0  0  0  0  0  0  0  0  0  0
   16.4224   -5.4018    0.0000 C   0  0  2  0  0  0  0  0  0  0  0  0
   16.8349   -4.6873    0.0000 C   0  0  2  0  0  0  0  0  0  0  0  0
   16.4994   -3.9336    0.0000 O   0  0  0  0  0  0  0  0  0  0  0  0
   17.6419   -4.8588    0.0000 C   0  0  1  0  0  0  0  0  0  0  0  0
   18.2550   -4.3068    0.0000 O   0  0  0  0  0  0  0  0  0  0  0  0
   19.0396   -4.5617    0.0000 P   0  0  0  0  0  0  0  0  0  0  0  0
   18.7847   -5.3464    0.0000 O   0  0  0  0  0  0  0  0  0  0  0  0
   19.2945   -3.7771    0.0000 O   0  0  0  0  0  0  0  0  0  0  0  0
   19.8242   -4.8167    0.0000 O   0  0  0  0  0  0  0  0  0  0  0  0
   15.6019   -5.4880    0.0000 N   0  0  0  0  0  0  0  0  0  0  0  0
   15.0499   -4.8749    0.0000 C   0  0  0  0  0  0  0  0  0  0  0  0
   14.2962   -5.2105    0.0000 N   0  0  0  0  0  0  0  0  0  0  0  0
   14.3825   -6.0310    0.0000 C   0  0  0  0  0  0  0  0  0  0  0  0
   15.1894   -6.2025    0.0000 C   0  0  0  0  0  0  0  0  0  0  0  0
   15.4444   -6.9871    0.0000 N   0  0  0  0  0  0  0  0  0  0  0  0
   14.8923   -7.6002    0.0000 C   0  0  0  0  0  0  0  0  0  0  0  0
   14.0854   -7.4287    0.0000 N   0  0  0  0  0  0  0  0  0  0  0  0
   13.8304   -6.6441    0.0000 C   0  0  0  0  0  0  0  0  0  0  0  0
   13.0235   -6.4725    0.0000 N   0  0  0  0  0  0  0  0  0  0  0  0
   24.1584   -5.2668    0.0000 C   0  0  1  0  0  0  0  0  0  0  0  0
   24.1584   -4.4418    0.0000 O   0  0  0  0  0  0  0  0  0  0  0  0
   24.8728   -5.6793    0.0000 C   0  0  0  0  0  0  0  0  0  0  0  0
   24.8728   -6.5043    0.0000 O   0  0  0  0  0  0  0  0  0  0  0  0
   25.5873   -5.2668    0.0000 N   0  0  0  0  0  0  0  0  0  0  0  0
   26.3018   -5.6793    0.0000 C   0  0  0  0  0  0  0  0  0  0  0  0
   27.0162   -5.2668    0.0000 C   0  0  0  0  0  0  0  0  0  0  0  0
   27.7307   -5.6793    0.0000 C   0  0  0  0  0  0  0  0  0  0  0  0
   27.7307   -6.5043    0.0000 O   0  0  0  0  0  0  0  0  0  0  0  0
   28.4452   -5.2668    0.0000 N   0  0  0  0  0  0  0  0  0  0  0  0
   29.1597   -5.6793    0.0000 C   0  0  0  0  0  0  0  0  0  0  0  0
   29.8741   -5.2668    0.0000 C   0  0  0  0  0  0  0  0  0  0  0  0
   30.5886   -5.6793    0.0000 S   0  0  0  0  0  0  0  0  0  0  0  0
   31.3031   -5.2668    0.0000 C   0  0  0  0  0  0  0  0  0  0  0  0
   32.0175   -5.6793    0.0000 C   0  0  0  0  0  0  0  0  0  0  0  0
   32.7320   -5.2668    0.0000 C   0  0  0  0  0  0  0  0  0  0  0  0
   33.4465   -5.6793    0.0000 C   0  0  0  0  0  0  0  0  0  0  0  0
   34.1610   -5.2668    0.0000 C   0  0  0  0  0  0  0  0  0  0  0  0
   34.1610   -4.4418    0.0000 O   0  0  0  0  0  0  0  0  0  0  0  0
   34.8754   -5.6793    0.0000 N   0  0  0  0  0  0  0  0  0  0  0  0
   35.5899   -5.2668    0.0000 C   0  0  0  0  0  0  0  0  0  0  0  0
   36.3044   -5.6793    0.0000 C   0  0  0  0  0  0  0  0  0  0  0  0
   37.0188   -5.2668    0.0000 C   0  0  0  0  0  0  0  0  0  0  0  0
   37.1051   -4.4463    0.0000 C   0  0  0  0  0  0  0  0  0  0  0  0
   37.9120   -4.2748    0.0000 N   0  0  0  0  0  0  0  0  0  0  0  0
   38.3245   -4.9893    0.0000 C   0  0  0  0  0  0  0  0  0  0  0  0
   39.1315   -5.1608    0.0000 C   0  0  0  0  0  0  0  0  0  0  0  0
   39.3865   -5.9454    0.0000 C   0  0  0  0  0  0  0  0  0  0  0  0
   38.8344   -6.5585    0.0000 C   0  0  0  0  0  0  0  0  0  0  0  0
   38.0275   -6.3870    0.0000 C   0  0  0  0  0  0  0  0  0  0  0  0
   37.7725   -5.6024    0.0000 C   0  0  0  0  0  0  0  0  0  0  0  0
  1  2  1  0  0  0  0
  2  3  1  0  0  0  0
  2  4  1  0  0  0  0
  4  5  1  0  0  0  0
  6  5  1  1  0  0  0
  6  7  1  6  0  0  0
  6  8  2  0  0  0  0
  6  9  1  0  0  0  0
 10  9  1  6  0  0  0
 10 11  1  1  0  0  0
 10 12  2  0  0  0  0
 10 13  1  0  0  0  0
 13 14  1  0  0  0  0
 15 14  1  6  0  0  0
 15 16  1  0  0  0  0
 16 17  1  0  0  0  0
 17 18  1  0  0  0  0
 18 19  1  6  0  0  0
 18 20  1  0  0  0  0
 15 20  1  0  0  0  0
 20 21  1  1  0  0  0
 21 22  1  0  0  0  0
 22 23  1  0  0  0  0
 22 24  1  0  0  0  0
 22 25  2  0  0  0  0
 17 26  1  1  0  0  0
 26 27  1  0  0  0  0
 27 28  2  0  0  0  0
 28 29  1  0  0  0  0
 29 30  2  0  0  0  0
 26 30  1  0  0  0  0
 30 31  1  0  0  0  0
 31 32  2  0  0  0  0
 32 33  1  0  0  0  0
 33 34  2  0  0  0  0
 29 34  1  0  0  0  0
 34 35  1  0  0  0  0
  2 36  1  0  0  0  0
 36 37  1  1  0  0  0
 36 38  1  0  0  0  0
 38 39  2  0  0  0  0
 38 40  1  0  0  0  0
 40 41  1  0  0  0  0
 41 42  1  0  0  0  0
 42 43  1  0  0  0  0
 43 44  2  0  0  0  0
 43 45  1  0  0  0  0
 45 46  1  0  0  0  0
 46 47  1  0  0  0  0
 47 48  1  0  0  0  0
 48 49  1  0  0  0  0
 49 50  1  0  0  0  0
 50 51  1  0  0  0  0
 51 52  1  0  0  0  0
 52 53  1  0  0  0  0
 53 54  2  0  0  0  0
 53 55  1  0  0  0  0
 55 56  1  0  0  0  0
 56 57  1  0  0  0  0
 57 58  1  0  0  0  0
 58 59  4  0  0  0  0
 59 60  4  0  0  0  0
 60 61  4  0  0  0  0
 61 62  4  0  0  0  0
 62 63  4  0  0  0  0
 63 64  4  0  0  0  0
 64 65  4  0  0  0  0
 65 66  4  0  0  0  0
 58 66  4  0  0  0  0
 61 66  4  0  0  0  0
M  END
> <DRUGBANK_ID>
DB01777

> <DRUG_GROUPS>
experimental

> <GENERIC_NAME>
Coa-S-Trimethylene-Acetyl-Tryptamine

> <CHEMICAL_FORMULA>
C36H53N9O17P3S

> <MOLECULAR_WEIGHT>
1008.842

> <EXACT_MASS>
1008.249296541

> <IUPAC_NAME>
{[(2S,3R,4R,5R)-5-(6-amino-9H-purin-9-yl)-4-hydroxy-2-({[hydroxy({hydroxy[(3R)-3-hydroxy-3-{[2-({2-[(4-{[2-(indol-3-yl)ethyl]carbamoyl}butyl)sulfanyl]ethyl}carbamoyl)ethyl]carbamoyl}-2,2-dimethylpropoxy]phosphoryl}oxy)phosphoryl]oxy}methyl)oxolan-3-yl]oxy}phosphonic acid

> <IUPAC_TRADITIONAL_NAME>
[(2S,3R,4R,5R)-5-(6-aminopurin-9-yl)-4-hydroxy-2-[({hydroxy[hydroxy(3R)-3-hydroxy-3-{[2-({2-[(4-{[2-(indol-3-yl)ethyl]carbamoyl}butyl)sulfanyl]ethyl}carbamoyl)ethyl]carbamoyl}-2,2-dimethylpropoxyphosphoryl]oxyphosphoryl}oxy)methyl]oxolan-3-yl]oxyphosphonic acid

> <INCHI_IDENTIFIER>
InChI=1S/C36H53N9O17P3S/c1-36(2,31(49)34(50)40-13-11-27(47)39-14-16-66-15-6-5-9-26(46)38-12-10-22-17-41-24-8-4-3-7-23(22)24)19-59-65(56,57)62-64(54,55)58-18-25-30(61-63(51,52)53)29(48)35(60-25)45-21-44-28-32(37)42-20-43-33(28)45/h3-4,7-8,17,20-21,25,29-31,35,48-49H,5-6,9-16,18-19H2,1-2H3,(H,38,46)(H,39,47)(H,40,50)(H,54,55)(H,56,57)(H2,37,42,43)(H2,51,52,53)/t25-,29+,30-,31-,35+/m0/s1

> <INCHI_KEY>
InChIKey=OTVMELLORVUIRF-JNIGBQAFSA-N

> <SMILES>
CC(C)(CO[P@](O)(=O)O[P@@](O)(=O)OC[C@@H]1O[C@H]([C@H](O)[C@H]1OP(O)(O)=O)N1C=NC2=C1N=CN=C2N)[C@@H](O)C(=O)NCCC(=O)NCCSCCCCC(=O)NCCc1cnc2ccccc12

> <JCHEM_ACCEPTOR_COUNT>
18

> <JCHEM_DONOR_COUNT>
10

> <JCHEM_ACIDIC_PKA>
0.83

> <JCHEM_BASIC_PKA>
5.31

> <JCHEM_PHYSIOLOGICAL_CHARGE>
-4

> <ALOGPS_LOGP>
0.52

> <JCHEM_LOGP>
-6.5

> <ALOGPS_LOGS>
-2.7

> <JCHEM_POLARIZABILITY>
96.62

> <JCHEM_POLAR_SURFACE_AREA>
388.55

> <JCHEM_REFRACTIVITY>
233.25

> <JCHEM_ROTATABLE_BOND_COUNT>
27

> <ALOGPS_SOLUBILITY>
2.10e+00 g/l __ 

$$$$
