1040
  Mrv0541 02231215122D          

 35 34  0  0  0  0            999 V2000
    5.8369    5.9698    0.0000 S   0  0  0  0  0  0  0  0  0  0  0  0
    5.8369    2.8010    0.0000 S   0  0  0  0  0  0  0  0  0  0  0  0
    0.4430    3.3991    0.0000 O   0  0  0  0  0  0  0  0  0  0  0  0
    5.1225    5.5573    0.0000 O   0  0  0  0  0  0  0  0  0  0  0  0
    5.1225    2.3885    0.0000 O   0  0  0  0  0  0  0  0  0  0  0  0
    7.9804    6.3823    0.0000 O   0  0  0  0  0  0  0  0  0  0  0  0
    7.9804    3.2135    0.0000 O   0  0  0  0  0  0  0  0  0  0  0  0
    6.2494    5.2554    0.0000 O   0  0  0  0  0  0  0  0  0  0  0  0
    5.4244    6.6844    0.0000 O   0  0  0  0  0  0  0  0  0  0  0  0
    6.2494    2.0865    0.0000 O   0  0  0  0  0  0  0  0  0  0  0  0
    5.4244    3.5155    0.0000 O   0  0  0  0  0  0  0  0  0  0  0  0
    1.8720    8.3492    0.0000 N   0  0  0  0  0  0  0  0  0  0  0  0
    0.4430    8.3492    0.0000 N   0  0  0  0  0  0  0  0  0  0  0  0
    2.5864    0.5115    0.0000 N   0  0  0  0  0  0  0  0  0  0  0  0
    1.1575    0.5115    0.0000 N   0  0  0  0  0  0  0  0  0  0  0  0
    1.1575    5.4616    0.0000 C   0  0  0  0  0  0  0  0  0  0  0  0
    1.8720    3.3991    0.0000 C   0  0  0  0  0  0  0  0  0  0  0  0
    1.1575    7.1117    0.0000 C   0  0  0  0  0  0  0  0  0  0  0  0
    1.1575    4.6366    0.0000 C   0  0  0  0  0  0  0  0  0  0  0  0
    1.8720    4.2241    0.0000 C   0  0  0  0  0  0  0  0  0  0  0  0
    0.4430    5.8741    0.0000 C   0  0  0  0  0  0  0  0  0  0  0  0
    1.8720    5.8741    0.0000 C   0  0  0  0  0  0  0  0  0  0  0  0
    0.4430    6.6991    0.0000 C   0  0  0  0  0  0  0  0  0  0  0  0
    1.8720    6.6991    0.0000 C   0  0  0  0  0  0  0  0  0  0  0  0
    1.1575    2.9866    0.0000 C   0  0  0  0  0  0  0  0  0  0  0  0
    2.5864    2.9866    0.0000 C   0  0  0  0  0  0  0  0  0  0  0  0
    1.8720    1.7490    0.0000 C   0  0  0  0  0  0  0  0  0  0  0  0
    1.1575    2.1615    0.0000 C   0  0  0  0  0  0  0  0  0  0  0  0
    2.5864    2.1615    0.0000 C   0  0  0  0  0  0  0  0  0  0  0  0
    1.1575    7.9367    0.0000 C   0  0  0  0  0  0  0  0  0  0  0  0
    6.5514    6.3823    0.0000 C   0  0  0  0  0  0  0  0  0  0  0  0
    6.5514    3.2135    0.0000 C   0  0  0  0  0  0  0  0  0  0  0  0
    1.8720    0.9240    0.0000 C   0  0  0  0  0  0  0  0  0  0  0  0
    7.2659    5.9698    0.0000 C   0  0  0  0  0  0  0  0  0  0  0  0
    7.2659    2.8010    0.0000 C   0  0  0  0  0  0  0  0  0  0  0  0
  1  4  1  0  0  0  0
  1  8  2  0  0  0  0
  1  9  2  0  0  0  0
  1 31  1  0  0  0  0
  2  5  1  0  0  0  0
  2 10  2  0  0  0  0
  2 11  2  0  0  0  0
  2 32  1  0  0  0  0
  3 25  2  0  0  0  0
  6 34  1  0  0  0  0
  7 35  1  0  0  0  0
 12 30  1  0  0  0  0
 13 30  1  0  0  0  0
 14 33  1  0  0  0  0
 15 33  2  0  0  0  0
 16 19  2  0  0  0  0
 16 21  1  0  0  0  0
 16 22  1  0  0  0  0
 17 20  2  0  0  0  0
 17 25  1  0  0  0  0
 17 26  1  0  0  0  0
 18 23  1  0  0  0  0
 18 24  1  0  0  0  0
 18 30  2  0  0  0  0
 19 20  1  0  0  0  0
 21 23  2  0  0  0  0
 22 24  2  0  0  0  0
 25 28  1  0  0  0  0
 26 29  2  0  0  0  0
 27 28  2  0  0  0  0
 27 29  1  0  0  0  0
 27 33  1  0  0  0  0
 31 34  1  0  0  0  0
 32 35  1  0  0  0  0
M  END
> <DRUGBANK_ID>
DB01040

> <DRUG_GROUPS>
approved

> <GENERIC_NAME>
Hydroxystilbamidine Isethionate

> <SYNONYMS>


> <CHEMICAL_FORMULA>
C20H28N4O9S2

> <MOLECULAR_WEIGHT>
532.588

> <EXACT_MASS>
532.129769894

> <IUPAC_NAME>
(4Z)-4-{2-[4-(diaminomethylidene)cyclohexa-2,5-dien-1-ylidene]ethylidene}-3-oxocyclohexa-1,5-diene-1-carboximidamide; bis(2-hydroxyethane-1-sulfonic acid)

> <IUPAC_TRADITIONAL_NAME>
(4Z)-4-{2-[4-(diaminomethylidene)cyclohexa-2,5-dien-1-ylidene]ethylidene}-3-oxocyclohexa-1,5-diene-1-carboximidamide; bis(isethionic acid)

> <INCHI_IDENTIFIER>
InChI=1S/C16H16N4O.2C2H6O4S/c17-15(18)12-5-2-10(3-6-12)1-4-11-7-8-13(16(19)20)9-14(11)21;2*3-1-2-7(4,5)6/h1-9H,17-18H2,(H3,19,20);2*3H,1-2H2,(H,4,5,6)/b11-4-;;

> <INCHI_KEY>
InChIKey=VIDDZUWWPMDEHU-LTTFOTGMSA-N

> <SMILES>
OCCS(O)(=O)=O.OCCS(O)(=O)=O.NC(N)=C1C=CC(=C\C=C2\C=CC(=CC2=O)C(N)=N)C=C1

> <JCHEM_ACCEPTOR_COUNT>
5

> <JCHEM_DONOR_COUNT>
4

> <JCHEM_BASIC_PKA>
11.08

> <JCHEM_PHYSIOLOGICAL_CHARGE>
1

> <JCHEM_LOGP>
-0.071

> <JCHEM_POLARIZABILITY>
30.93

> <JCHEM_POLAR_SURFACE_AREA>
118.98

> <JCHEM_REFRACTIVITY>
110.66

> <JCHEM_ROTATABLE_BOND_COUNT>
6 __ 

$$$$
