1390
  Mrv0541 02231215282D          

  5  3  0  0  0  0            999 V2000
    2.5864    0.8250    0.0000 Na   0  3  0  0  0  0  0  0  0  0  0  0
    0.4429    1.2375    0.0000 O    0  0  0  0  0  0  0  0  0  0  0  0
    1.8719    1.2375    0.0000 O    0  5  0  0  0  0  0  0  0  0  0  0
    1.1575    0.0000    0.0000 O    0  0  0  0  0  0  0  0  0  0  0  0
    1.1575    0.8250    0.0000 C    0  0  0  0  0  0  0  0  0  0  0  0
  2  5  1  0  0  0  0
  3  5  1  0  0  0  0
  4  5  2  0  0  0  0
M  END
> <DRUGBANK_ID>
DB01390

> <DRUG_GROUPS>
approved

> <GENERIC_NAME>
Sodium bicarbonate

> <SYNONYMS>
Baking soda; Bicarbonate of soda; Carbonic acid monosodium salt; Sodium acid carbonate; Sodium hydrogen carbonate; Sodium hydrogencarbonate

> <CHEMICAL_FORMULA>
CHNaO3

> <MOLECULAR_WEIGHT>
84.0066

> <EXACT_MASS>
83.982338573

> <IUPAC_NAME>
sodium hydrogen carbonate

> <IUPAC_TRADITIONAL_NAME>
sodium bicarbonate

> <INCHI_IDENTIFIER>
InChI=1S/CH2O3.Na/c2-1(3)4;/h(H2,2,3,4);/q;+1/p-1

> <INCHI_KEY>
InChIKey=UIIMBOGNXHQVGW-UHFFFAOYSA-M

> <SMILES>
[Na+].OC([O-])=O

> <JCHEM_ACCEPTOR_COUNT>
3

> <JCHEM_DONOR_COUNT>
1

> <JCHEM_ACIDIC_PKA>
6.05

> <JCHEM_PHYSIOLOGICAL_CHARGE>
-1

> <ALOGPS_LOGP>
-0.06

> <JCHEM_LOGP>
0.25

> <ALOGPS_LOGS>
0.96

> <JCHEM_POLARIZABILITY>
3.86

> <JCHEM_POLAR_SURFACE_AREA>
60.36

> <JCHEM_REFRACTIVITY>
20.34

> <JCHEM_ROTATABLE_BOND_COUNT>
0

> <ALOGPS_SOLUBILITY>
7.64e+02 g/l __ 

$$$$
