1396
  Mrv0541 02231215282D          

 57 64  0  0  1  0            999 V2000
   15.1106   -1.2857    0.0000 O   0  0  0  0  0  0  0  0  0  0  0  0
   10.6613   -2.1538    0.0000 O   0  0  0  0  0  0  0  0  0  0  0  0
   16.1499    2.7348    0.0000 O   0  0  0  0  0  0  0  0  0  0  0  0
    9.9516   -0.9136    0.0000 O   0  0  0  0  0  0  0  0  0  0  0  0
   17.6024    2.9624    0.0000 O   0  0  0  0  0  0  0  0  0  0  0  0
    7.8034   -2.1428    0.0000 O   0  0  0  0  0  0  0  0  0  0  0  0
    7.8098   -0.4928    0.0000 O   0  0  0  0  0  0  0  0  0  0  0  0
    7.0905   -1.7276    0.0000 O   0  0  0  0  0  0  0  0  0  0  0  0
    4.9455   -2.1318    0.0000 O   0  0  0  0  0  0  0  0  0  0  0  0
    4.9519   -0.4818    0.0000 O   0  0  0  0  0  0  0  0  0  0  0  0
    3.5166   -2.1263    0.0000 O   0  0  0  0  0  0  0  0  0  0  0  0
    3.5261    0.3487    0.0000 O   0  0  0  0  0  0  0  0  0  0  0  0
    2.0940   -0.4707    0.0000 O   0  0  0  0  0  0  0  0  0  0  0  0
   15.1106   -0.4607    0.0000 C   0  0  1  0  0  0  0  0  0  0  0  0
   14.3961   -0.8732    0.0000 C   0  0  1  0  0  0  0  0  0  0  0  0
   13.6817   -0.4607    0.0000 C   0  0  1  0  0  0  0  0  0  0  0  0
   15.1106    0.3643    0.0000 C   0  0  2  0  0  0  0  0  0  0  0  0
   12.9309   -0.8788    0.0000 C   0  0  2  0  0  0  0  0  0  0  0  0
   12.9243   -1.7381    0.0000 C   0  0  2  0  0  0  0  0  0  0  0  0
   13.6817    0.3643    0.0000 C   0  0  0  0  0  0  0  0  0  0  0  0
   14.3961    0.7768    0.0000 C   0  0  0  0  0  0  0  0  0  0  0  0
   15.8912    0.6158    0.0000 C   0  0  2  0  0  0  0  0  0  0  0  0
   14.4094   -1.7324    0.0000 C   0  0  0  0  0  0  0  0  0  0  0  0
   15.8912   -0.7121    0.0000 C   0  0  0  0  0  0  0  0  0  0  0  0
   13.6685   -2.1678    0.0000 C   0  0  0  0  0  0  0  0  0  0  0  0
   16.3728   -0.0482    0.0000 C   0  0  0  0  0  0  0  0  0  0  0  0
   12.1662   -0.4134    0.0000 C   0  0  0  0  0  0  0  0  0  0  0  0
   12.1525   -2.1916    0.0000 C   0  0  0  0  0  0  0  0  0  0  0  0
   15.1106    1.1893    0.0000 C   0  0  0  0  0  0  0  0  0  0  0  0
   12.9373   -0.0538    0.0000 C   0  0  0  0  0  0  0  0  0  0  0  0
   11.3843   -0.8490    0.0000 C   0  0  0  0  0  0  0  0  0  0  0  0
   11.3774   -1.7441    0.0000 C   0  0  2  0  0  0  0  0  0  0  0  0
   16.1476    1.4000    0.0000 C   0  0  0  0  0  0  0  0  0  0  0  0
   15.6638    2.0682    0.0000 C   0  0  0  0  0  0  0  0  0  0  0  0
   16.9326    1.6536    0.0000 C   0  0  0  0  0  0  0  0  0  0  0  0
    9.9484   -1.7386    0.0000 C   0  0  2  0  0  0  0  0  0  0  0  0
   16.9340    2.4786    0.0000 C   0  0  0  0  0  0  0  0  0  0  0  0
    9.2323   -2.1483    0.0000 C   0  0  0  0  0  0  0  0  0  0  0  0
    8.5194   -1.7331    0.0000 C   0  0  1  0  0  0  0  0  0  0  0  0
    9.2387   -0.4983    0.0000 C   0  0  1  0  0  0  0  0  0  0  0  0
    8.5227   -0.9081    0.0000 C   0  0  1  0  0  0  0  0  0  0  0  0
    9.2419    0.3267    0.0000 C   0  0  0  0  0  0  0  0  0  0  0  0
    7.0937   -0.9026    0.0000 C   0  0  2  0  0  0  0  0  0  0  0  0
    6.3808   -0.4873    0.0000 C   0  0  0  0  0  0  0  0  0  0  0  0
    5.6648   -0.8970    0.0000 C   0  0  1  0  0  0  0  0  0  0  0  0
    6.3744   -2.1373    0.0000 C   0  0  1  0  0  0  0  0  0  0  0  0
    5.6615   -1.7220    0.0000 C   0  0  1  0  0  0  0  0  0  0  0  0
    6.3713   -2.9624    0.0000 C   0  0  0  0  0  0  0  0  0  0  0  0
    4.2326   -1.7165    0.0000 C   0  0  2  0  0  0  0  0  0  0  0  0
    4.2358   -0.8916    0.0000 C   0  0  0  0  0  0  0  0  0  0  0  0
    3.5230   -0.4763    0.0000 C   0  0  1  0  0  0  0  0  0  0  0  0
    2.8037   -1.7111    0.0000 C   0  0  1  0  0  0  0  0  0  0  0  0
    2.8068   -0.8861    0.0000 C   0  0  1  0  0  0  0  0  0  0  0  0
    2.0876   -2.1208    0.0000 C   0  0  0  0  0  0  0  0  0  0  0  0
   14.9703   -1.1987    0.0000 H   0  0  0  0  0  0  0  0  0  0  0  0
   14.2533   -0.1307    0.0000 H   0  0  0  0  0  0  0  0  0  0  0  0
   12.9268   -2.3981    0.0000 H   0  0  0  0  0  0  0  0  0  0  0  0
 14  1  1  1  0  0  0
 32  2  1  1  0  0  0
 36  2  1  1  0  0  0
  3 34  1  0  0  0  0
  3 37  1  0  0  0  0
  4 36  1  0  0  0  0
  4 40  1  0  0  0  0
  5 37  2  0  0  0  0
 39  6  1  6  0  0  0
 41  7  1  6  0  0  0
 43  7  1  6  0  0  0
  8 43  1  0  0  0  0
  8 46  1  0  0  0  0
 47  9  1  1  0  0  0
 49  9  1  6  0  0  0
 45 10  1  1  0  0  0
 11 49  1  0  0  0  0
 11 52  1  0  0  0  0
 51 12  1  1  0  0  0
 53 13  1  1  0  0  0
 14 15  1  0  0  0  0
 14 17  1  0  0  0  0
 14 24  1  0  0  0  0
 15 16  1  0  0  0  0
 15 23  1  0  0  0  0
 15 55  1  1  0  0  0
 16 18  1  0  0  0  0
 16 20  1  0  0  0  0
 16 56  1  6  0  0  0
 17 21  1  0  0  0  0
 17 22  1  0  0  0  0
 17 29  1  1  0  0  0
 18 19  1  0  0  0  0
 18 27  1  0  0  0  0
 18 30  1  1  0  0  0
 19 25  1  0  0  0  0
 19 28  1  0  0  0  0
 19 57  1  1  0  0  0
 20 21  1  0  0  0  0
 22 26  1  0  0  0  0
 22 33  1  1  0  0  0
 23 25  1  0  0  0  0
 24 26  1  0  0  0  0
 27 31  1  0  0  0  0
 28 32  1  0  0  0  0
 31 32  1  0  0  0  0
 33 34  1  0  0  0  0
 33 35  2  0  0  0  0
 35 37  1  0  0  0  0
 36 38  1  0  0  0  0
 38 39  1  0  0  0  0
 39 41  1  0  0  0  0
 40 41  1  0  0  0  0
 40 42  1  1  0  0  0
 43 44  1  0  0  0  0
 44 45  1  0  0  0  0
 45 47  1  0  0  0  0
 46 47  1  0  0  0  0
 46 48  1  6  0  0  0
 49 50  1  0  0  0  0
 50 51  1  0  0  0  0
 51 53  1  0  0  0  0
 52 53  1  0  0  0  0
 52 54  1  6  0  0  0
M  END
> <DRUGBANK_ID>
DB01396

> <DRUG_GROUPS>
approved

> <GENERIC_NAME>
Digitoxin

> <SYNONYMS>
Digitoxoside

> <BRANDS>


> <CHEMICAL_FORMULA>
C41H64O13

> <MOLECULAR_WEIGHT>
764.9391

> <EXACT_MASS>
764.434692134

> <IUPAC_NAME>
4-[(1S,2S,5S,7R,10R,11S,14R,15R)-5-{[(2R,4S,5S,6R)-5-{[(2S,4S,5S,6R)-5-{[(2S,4S,5S,6R)-4,5-dihydroxy-6-methyloxan-2-yl]oxy}-4-hydroxy-6-methyloxan-2-yl]oxy}-4-hydroxy-6-methyloxan-2-yl]oxy}-11-hydroxy-2,15-dimethyltetracyclo[8.7.0.0^{2,7}.0^{11,15}]heptadecan-14-yl]-2,5-dihydrofuran-2-one

> <IUPAC_TRADITIONAL_NAME>
digitoxin

> <INCHI_IDENTIFIER>
InChI=1S/C41H64O13/c1-20-36(46)29(42)16-34(49-20)53-38-22(3)51-35(18-31(38)44)54-37-21(2)50-33(17-30(37)43)52-25-8-11-39(4)24(15-25)6-7-28-27(39)9-12-40(5)26(10-13-41(28,40)47)23-14-32(45)48-19-23/h14,20-22,24-31,33-38,42-44,46-47H,6-13,15-19H2,1-5H3/t20-,21-,22-,24-,25+,26-,27+,28-,29+,30+,31+,33+,34+,35+,36-,37-,38-,39+,40-,41+/m1/s1

> <INCHI_KEY>
InChIKey=WDJUZGPOPHTGOT-XUDUSOBPSA-N

> <SMILES>
[H][C@]12CC[C@]3([H])[C@]([H])(CC[C@]4(C)[C@H](CC[C@]34O)C3=CC(=O)OC3)[C@@]1(C)CC[C@@H](C2)O[C@H]1C[C@H](O)[C@H](O[C@H]2C[C@H](O)[C@H](O[C@H]3C[C@H](O)[C@H](O)[C@@H](C)O3)[C@@H](C)O2)[C@@H](C)O1

> <JCHEM_ACCEPTOR_COUNT>
12

> <JCHEM_DONOR_COUNT>
5

> <JCHEM_ACIDIC_PKA>
7.18

> <JCHEM_BASIC_PKA>
0.24

> <JCHEM_PHYSIOLOGICAL_CHARGE>
0

> <ALOGPS_LOGP>
2.33

> <JCHEM_LOGP>
3.6

> <ALOGPS_LOGS>
-4.4

> <JCHEM_POLARIZABILITY>
83.58

> <JCHEM_POLAR_SURFACE_AREA>
182.83

> <JCHEM_REFRACTIVITY>
191.72

> <JCHEM_ROTATABLE_BOND_COUNT>
7

> <ALOGPS_SOLUBILITY>
2.89e-02 g/l __ 

$$$$
