1542
  Mrv0541 02231215332D          

 21 22  0  0  1  0            999 V2000
    3.8592    0.6582    0.0000 O   0  0  0  0  0  0  0  0  0  0  0  0
    2.4519    0.9064    0.0000 O   0  0  0  0  0  0  0  0  0  0  0  0
    4.2717   -1.7063    0.0000 N   0  0  0  0  0  0  0  0  0  0  0  0
    4.2717   -0.0563    0.0000 C   0  0  0  0  0  0  0  0  0  0  0  0
    3.5571   -0.4688    0.0000 C   0  0  0  0  0  0  0  0  0  0  0  0
    4.9862   -0.4688    0.0000 C   0  0  0  0  0  0  0  0  0  0  0  0
    3.5571   -1.2938    0.0000 C   0  0  0  0  0  0  0  0  0  0  0  0
    4.9862   -1.2938    0.0000 C   0  0  0  0  0  0  0  0  0  0  0  0
    2.7447   -0.6121    0.0000 C   0  0  0  0  0  0  0  0  0  0  0  0
    4.6842    0.6582    0.0000 C   0  0  0  0  0  0  0  0  0  0  0  0
    4.2717   -2.5313    0.0000 C   0  0  0  0  0  0  0  0  0  0  0  0
    4.2717    1.3727    0.0000 C   0  0  0  0  0  0  0  0  0  0  0  0
    5.5092    0.6582    0.0000 C   0  0  0  0  0  0  0  0  0  0  0  0
    2.4624   -1.3873    0.0000 C   0  0  0  0  0  0  0  0  0  0  0  0
    3.2272    1.1886    0.0000 C   0  0  0  0  0  0  0  0  0  0  0  0
    4.6842    2.0872    0.0000 C   0  0  0  0  0  0  0  0  0  0  0  0
    5.9217    1.3727    0.0000 C   0  0  0  0  0  0  0  0  0  0  0  0
    3.3704    2.0010    0.0000 C   0  0  0  0  0  0  0  0  0  0  0  0
    5.5092    2.0872    0.0000 C   0  0  0  0  0  0  0  0  0  0  0  0
    1.6500   -1.5306    0.0000 C   0  0  0  0  0  0  0  0  0  0  0  0
    2.7384    2.5313    0.0000 C   0  0  0  0  0  0  0  0  0  0  0  0
  1  4  1  0  0  0  0
  1 15  1  0  0  0  0
  2 15  2  0  0  0  0
  3  7  1  0  0  0  0
  3  8  1  0  0  0  0
  3 11  1  0  0  0  0
  4  5  1  0  0  0  0
  4  6  1  0  0  0  0
  4 10  1  0  0  0  0
  5  7  1  0  0  0  0
  5  9  1  0  0  0  0
  6  8  1  0  0  0  0
  9 14  1  0  0  0  0
 10 12  2  0  0  0  0
 10 13  1  0  0  0  0
 12 16  1  0  0  0  0
 13 17  2  0  0  0  0
 14 20  2  0  0  0  0
 15 18  1  0  0  0  0
 16 19  2  0  0  0  0
 17 19  1  0  0  0  0
 18 21  1  0  0  0  0
M  END
> <DRUGBANK_ID>
DB01542

> <DRUG_GROUPS>
experimental; illicit

> <GENERIC_NAME>
Allylprodine

> <CHEMICAL_FORMULA>
C18H25NO2

> <MOLECULAR_WEIGHT>
287.3966

> <EXACT_MASS>
287.188529049

> <IUPAC_NAME>
1-methyl-4-phenyl-3-(prop-2-en-1-yl)piperidin-4-yl propanoate

> <IUPAC_TRADITIONAL_NAME>
allylprodine

> <INCHI_IDENTIFIER>
InChI=1S/C18H25NO2/c1-4-9-16-14-19(3)13-12-18(16,21-17(20)5-2)15-10-7-6-8-11-15/h4,6-8,10-11,16H,1,5,9,12-14H2,2-3H3

> <INCHI_KEY>
InChIKey=KGYFOSCXVAXULR-UHFFFAOYSA-N

> <SMILES>
CCC(=O)OC1(CCN(C)CC1CC=C)C1=CC=CC=C1

> <JCHEM_ACCEPTOR_COUNT>
2

> <JCHEM_DONOR_COUNT>
0

> <JCHEM_BASIC_PKA>
9.19

> <JCHEM_PHYSIOLOGICAL_CHARGE>
1

> <ALOGPS_LOGP>
3.82

> <JCHEM_LOGP>
3.36

> <ALOGPS_LOGS>
-3.8

> <JCHEM_POLARIZABILITY>
32.99

> <JCHEM_POLAR_SURFACE_AREA>
29.54

> <JCHEM_REFRACTIVITY>
85.66

> <JCHEM_ROTATABLE_BOND_COUNT>
6

> <ALOGPS_SOLUBILITY>
4.62e-02 g/l __ 

$$$$
