1206
  Mrv0541 02231215192D          

 15 15  0  0  0  0            999 V2000
    4.5080    2.6813    0.0000 Cl   0  0  0  0  0  0  0  0  0  0  0  0
    3.7935   -0.2063    0.0000 O    0  0  0  0  0  0  0  0  0  0  0  0
    2.3645    2.2688    0.0000 O    0  0  0  0  0  0  0  0  0  0  0  0
    2.3645   -0.2063    0.0000 N    0  0  0  0  0  0  0  0  0  0  0  0
    3.0791    1.0313    0.0000 N    0  0  0  0  0  0  0  0  0  0  0  0
    2.3645    1.4438    0.0000 N    0  0  0  0  0  0  0  0  0  0  0  0
    2.3645   -1.0313    0.0000 C    0  0  0  0  0  0  0  0  0  0  0  0
    1.6500   -1.4438    0.0000 C    0  0  0  0  0  0  0  0  0  0  0  0
    3.0791   -1.4438    0.0000 C    0  0  0  0  0  0  0  0  0  0  0  0
    1.6500   -2.2688    0.0000 C    0  0  0  0  0  0  0  0  0  0  0  0
    3.0791   -2.2688    0.0000 C    0  0  0  0  0  0  0  0  0  0  0  0
    2.3645   -2.6813    0.0000 C    0  0  0  0  0  0  0  0  0  0  0  0
    3.0791    0.2063    0.0000 C    0  0  0  0  0  0  0  0  0  0  0  0
    3.7935    1.4438    0.0000 C    0  0  0  0  0  0  0  0  0  0  0  0
    3.7935    2.2688    0.0000 C    0  0  0  0  0  0  0  0  0  0  0  0
  1 15  1  0  0  0  0
  2 13  2  0  0  0  0
  3  6  2  0  0  0  0
  4  7  1  0  0  0  0
  4 13  1  0  0  0  0
  5  6  1  0  0  0  0
  5 13  1  0  0  0  0
  5 14  1  0  0  0  0
  7  8  1  0  0  0  0
  7  9  1  0  0  0  0
  8 10  1  0  0  0  0
  9 11  1  0  0  0  0
 10 12  1  0  0  0  0
 11 12  1  0  0  0  0
 14 15  1  0  0  0  0
M  END
> <DRUGBANK_ID>
DB01206

> <DRUG_GROUPS>
approved

> <GENERIC_NAME>
Lomustine

> <SYNONYMS>
Lomustina; Lomustinum

> <BRANDS>


> <CHEMICAL_FORMULA>
C9H16ClN3O2

> <MOLECULAR_WEIGHT>
233.695

> <EXACT_MASS>
233.093104478

> <IUPAC_NAME>
3-(2-chloroethyl)-1-cyclohexyl-3-nitrosourea

> <IUPAC_TRADITIONAL_NAME>
lomustine

> <INCHI_IDENTIFIER>
InChI=1S/C9H16ClN3O2/c10-6-7-13(12-15)9(14)11-8-4-2-1-3-5-8/h8H,1-7H2,(H,11,14)

> <INCHI_KEY>
InChIKey=GQYIWUVLTXOXAJ-UHFFFAOYSA-N

> <SMILES>
ClCCN(N=O)C(=O)NC1CCCCC1

> <JCHEM_ACCEPTOR_COUNT>
2

> <JCHEM_DONOR_COUNT>
1

> <JCHEM_ACIDIC_PKA>
13.3

> <JCHEM_BASIC_PKA>
-5.3

> <JCHEM_PHYSIOLOGICAL_CHARGE>
0

> <ALOGPS_LOGP>
2.62

> <JCHEM_LOGP>
2.16

> <ALOGPS_LOGS>
-2.5

> <JCHEM_POLARIZABILITY>
23.61

> <JCHEM_POLAR_SURFACE_AREA>
61.77

> <JCHEM_REFRACTIVITY>
58.65

> <JCHEM_ROTATABLE_BOND_COUNT>
4

> <ALOGPS_SOLUBILITY>
7.55e-01 g/l __ 

$$$$
