
  Mrv0541 02231215522D          

 36 39  0  0  1  0            999 V2000
   -3.2056    4.3648    0.0000 N   0  0  0  0  0  0  0  0  0  0  0  0
   -2.3986    4.5363    0.0000 C   0  0  0  0  0  0  0  0  0  0  0  0
   -2.1437    5.3209    0.0000 N   0  0  0  0  0  0  0  0  0  0  0  0
   -1.3367    5.4924    0.0000 C   0  0  0  0  0  0  0  0  0  0  0  0
   -0.7847    4.8794    0.0000 N   0  0  0  0  0  0  0  0  0  0  0  0
   -1.0396    4.0947    0.0000 C   0  0  0  0  0  0  0  0  0  0  0  0
   -1.8466    3.9232    0.0000 C   0  0  0  0  0  0  0  0  0  0  0  0
   -1.9328    3.1027    0.0000 N   0  0  0  0  0  0  0  0  0  0  0  0
   -1.1791    2.7672    0.0000 C   0  0  0  0  0  0  0  0  0  0  0  0
   -0.6271    3.3803    0.0000 N   0  0  0  0  0  0  0  0  0  0  0  0
    0.1934    3.2940    0.0000 C   0  0  2  0  0  0  0  0  0  0  0  0
    0.7454    3.9071    0.0000 O   0  0  0  0  0  0  0  0  0  0  0  0
    1.4991    3.5716    0.0000 C   0  0  1  0  0  0  0  0  0  0  0  0
    2.2136    3.9841    0.0000 C   0  0  0  0  0  0  0  0  0  0  0  0
    2.9280    3.5716    0.0000 O   0  0  0  0  0  0  0  0  0  0  0  0
    3.6425    3.9841    0.0000 P   0  0  1  0  0  0  0  0  0  0  0  0
    4.0550    3.2696    0.0000 O   0  0  0  0  0  0  0  0  0  0  0  0
    3.2300    4.6985    0.0000 O   0  0  0  0  0  0  0  0  0  0  0  0
    4.3570    4.3966    0.0000 C   0  0  0  0  0  0  0  0  0  0  0  0
    5.0714    3.9841    0.0000 P   0  0  2  0  0  0  0  0  0  0  0  0
    4.6589    3.2696    0.0000 O   0  0  0  0  0  0  0  0  0  0  0  0
    5.4839    4.6985    0.0000 O   0  0  0  0  0  0  0  0  0  0  0  0
    5.7859    3.5716    0.0000 O   0  0  0  0  0  0  0  0  0  0  0  0
    6.5004    3.9841    0.0000 C   0  0  0  0  0  0  0  0  0  0  0  0
    7.2149    3.5716    0.0000 C   0  0  1  0  0  0  0  0  0  0  0  0
    7.9685    3.9071    0.0000 O   0  0  0  0  0  0  0  0  0  0  0  0
    8.5206    3.2940    0.0000 C   0  0  2  0  0  0  0  0  0  0  0  0
    9.3410    3.3803    0.0000 O   0  0  0  0  0  0  0  0  0  0  0  0
    8.1081    2.5796    0.0000 C   0  0  1  0  0  0  0  0  0  0  0  0
    8.4436    1.8259    0.0000 O   0  0  0  0  0  0  0  0  0  0  0  0
    7.3011    2.7511    0.0000 C   0  0  2  0  0  0  0  0  0  0  0  0
    6.6880    2.1990    0.0000 O   0  0  0  0  0  0  0  0  0  0  0  0
    1.4129    2.7511    0.0000 C   0  0  2  0  0  0  0  0  0  0  0  0
    2.0260    2.1990    0.0000 O   0  0  0  0  0  0  0  0  0  0  0  0
    0.6059    2.5796    0.0000 C   0  0  1  0  0  0  0  0  0  0  0  0
    0.2703    1.8259    0.0000 O   0  0  0  0  0  0  0  0  0  0  0  0
  1  2  1  0  0  0  0
  2  3  2  0  0  0  0
  3  4  1  0  0  0  0
  4  5  2  0  0  0  0
  5  6  1  0  0  0  0
  6  7  2  0  0  0  0
  2  7  1  0  0  0  0
  7  8  1  0  0  0  0
  8  9  2  0  0  0  0
  9 10  1  0  0  0  0
  6 10  1  0  0  0  0
 11 10  1  6  0  0  0
 11 12  1  0  0  0  0
 12 13  1  0  0  0  0
 13 14  1  1  0  0  0
 14 15  1  0  0  0  0
 16 15  1  1  0  0  0
 16 17  1  6  0  0  0
 16 18  2  0  0  0  0
 16 19  1  0  0  0  0
 19 20  1  0  0  0  0
 20 21  1  1  0  0  0
 20 22  2  0  0  0  0
 20 23  1  6  0  0  0
 23 24  1  0  0  0  0
 25 24  1  1  0  0  0
 25 26  1  0  0  0  0
 26 27  1  0  0  0  0
 27 28  1  6  0  0  0
 27 29  1  0  0  0  0
 29 30  1  1  0  0  0
 29 31  1  0  0  0  0
 25 31  1  0  0  0  0
 31 32  1  6  0  0  0
 13 33  1  0  0  0  0
 33 34  1  6  0  0  0
 33 35  1  0  0  0  0
 11 35  1  0  0  0  0
 35 36  1  1  0  0  0
M  END
> <DRUGBANK_ID>
DB01975

> <DRUG_GROUPS>
experimental

> <GENERIC_NAME>
AMPCPR

> <SYNONYMS>


> <CHEMICAL_FORMULA>
C16H25N5O13P2

> <MOLECULAR_WEIGHT>
557.3429

> <EXACT_MASS>
557.092408935

> <IUPAC_NAME>
{[(2S,3R,4R,5R)-5-(6-amino-9H-purin-9-yl)-3,4-dihydroxyoxolan-2-yl]methoxy}({[hydroxy({[(2R,3S,4S,5S)-3,4,5-trihydroxyoxolan-2-yl]methoxy})phosphoryl]methyl})phosphinic acid

> <IUPAC_TRADITIONAL_NAME>
[(2S,3R,4R,5R)-5-(6-aminopurin-9-yl)-3,4-dihydroxyoxolan-2-yl]methoxy({hydroxy[(2R,3S,4S,5S)-3,4,5-trihydroxyoxolan-2-yl]methoxyphosphoryl}methyl)phosphinic acid

> <INCHI_IDENTIFIER>
InChI=1S/C16H25N5O13P2/c17-13-8-14(19-3-18-13)21(4-20-8)15-11(24)9(22)6(33-15)1-31-35(27,28)5-36(29,30)32-2-7-10(23)12(25)16(26)34-7/h3-4,6-7,9-12,15-16,22-26H,1-2,5H2,(H,27,28)(H,29,30)(H2,17,18,19)/t6-,7+,9-,10+,11+,12-,15+,16-/m0/s1

> <INCHI_KEY>
InChIKey=ZPZRETFSCSWNDT-VXLWFBCLSA-N

> <SMILES>
NC1=NC=NC2=C1N=CN2[C@@H]1O[C@@H](CO[P@@](O)(=O)C[P@](O)(=O)OC[C@H]2O[C@H](O)[C@@H](O)[C@@H]2O)[C@H](O)[C@H]1O

> <JCHEM_ACCEPTOR_COUNT>
15

> <JCHEM_DONOR_COUNT>
8

> <JCHEM_ACIDIC_PKA>
0.81

> <JCHEM_BASIC_PKA>
4.99

> <JCHEM_PHYSIOLOGICAL_CHARGE>
-2

> <ALOGPS_LOGP>
-2

> <JCHEM_LOGP>
-8.5

> <ALOGPS_LOGS>
-2.1

> <JCHEM_POLARIZABILITY>
47.67

> <JCHEM_POLAR_SURFACE_AREA>
282.29

> <JCHEM_REFRACTIVITY>
113.48

> <JCHEM_ROTATABLE_BOND_COUNT>
9

> <ALOGPS_SOLUBILITY>
4.24e+00 g/l __ 

$$$$
