1444
  Mrv0541 02231215292D          

 17 18  0  0  1  0            999 V2000
    5.2616   -0.1133    0.0000 S   0  0  0  0  0  0  0  0  0  0  0  0
    3.1261   -1.5002    0.0000 S   0  0  0  0  0  0  0  0  0  0  0  0
    2.3645    1.4598    0.0000 N   0  0  0  0  0  0  0  0  0  0  0  0
    3.0791    1.0473    0.0000 C   0  0  0  0  0  0  0  0  0  0  0  0
    3.0791    0.2223    0.0000 C   0  0  0  0  0  0  0  0  0  0  0  0
    3.7935   -0.1902    0.0000 C   0  0  0  0  0  0  0  0  0  0  0  0
    3.7935    1.4598    0.0000 C   0  0  0  0  0  0  0  0  0  0  0  0
    2.3645    2.2848    0.0000 C   0  0  0  0  0  0  0  0  0  0  0  0
    1.6500    1.0473    0.0000 C   0  0  0  0  0  0  0  0  0  0  0  0
    4.5080    0.2223    0.0000 C   0  0  0  0  0  0  0  0  0  0  0  0
    3.7935   -1.0153    0.0000 C   0  0  0  0  0  0  0  0  0  0  0  0
    4.5942    1.0427    0.0000 C   0  0  0  0  0  0  0  0  0  0  0  0
    4.4610   -1.5002    0.0000 C   0  0  0  0  0  0  0  0  0  0  0  0
    5.4012    1.2143    0.0000 C   0  0  0  0  0  0  0  0  0  0  0  0
    4.2060   -2.2848    0.0000 C   0  0  0  0  0  0  0  0  0  0  0  0
    5.8137    0.4998    0.0000 C   0  0  0  0  0  0  0  0  0  0  0  0
    3.3810   -2.2848    0.0000 C   0  0  0  0  0  0  0  0  0  0  0  0
  1 10  1  0  0  0  0
  1 16  1  0  0  0  0
  2 11  1  0  0  0  0
  2 17  1  0  0  0  0
  3  4  1  0  0  0  0
  3  8  1  0  0  0  0
  3  9  1  0  0  0  0
  4  5  1  0  0  0  0
  4  7  1  0  0  0  0
  5  6  2  0  0  0  0
  6 10  1  0  0  0  0
  6 11  1  0  0  0  0
 10 12  2  0  0  0  0
 11 13  2  0  0  0  0
 12 14  1  0  0  0  0
 13 15  1  0  0  0  0
 14 16  2  0  0  0  0
 15 17  2  0  0  0  0
M  END
> <DRUGBANK_ID>
DB01444

> <DRUG_GROUPS>
experimental; illicit

> <GENERIC_NAME>
Dimethylthiambutene

> <SYNONYMS>


> <CHEMICAL_FORMULA>
C14H17NS2

> <MOLECULAR_WEIGHT>
263.421

> <EXACT_MASS>
263.080240929

> <IUPAC_NAME>
[4,4-bis(thiophen-2-yl)but-3-en-2-yl]dimethylamine

> <IUPAC_TRADITIONAL_NAME>
dimethylthiambutene

> <INCHI_IDENTIFIER>
InChI=1S/C14H17NS2/c1-11(15(2)3)10-12(13-6-4-8-16-13)14-7-5-9-17-14/h4-11H,1-3H3

> <INCHI_KEY>
InChIKey=CANBGVXYBPOLRR-UHFFFAOYSA-N

> <SMILES>
CC(C=C(C1=CC=CS1)C1=CC=CS1)N(C)C

> <JCHEM_ACCEPTOR_COUNT>
1

> <JCHEM_DONOR_COUNT>
0

> <JCHEM_BASIC_PKA>
8.67

> <JCHEM_PHYSIOLOGICAL_CHARGE>
1

> <ALOGPS_LOGP>
4.06

> <JCHEM_LOGP>
4.2

> <ALOGPS_LOGS>
-3.5

> <JCHEM_POLARIZABILITY>
29.46

> <JCHEM_POLAR_SURFACE_AREA>
3.24

> <JCHEM_REFRACTIVITY>
86.67

> <JCHEM_ROTATABLE_BOND_COUNT>
4

> <ALOGPS_SOLUBILITY>
8.39e-02 g/l __ 

$$$$
