
  Mrv0541 02231215422D          

 33 35  0  0  1  0            999 V2000
    2.4236   -3.9894    0.0000 C   0  0  0  0  0  0  0  0  0  0  0  0
    1.9864   -4.6891    0.0000 C   0  0  0  0  0  0  0  0  0  0  0  0
    2.3738   -5.4175    0.0000 O   0  0  0  0  0  0  0  0  0  0  0  0
    1.1619   -4.6603    0.0000 N   0  0  0  0  0  0  0  0  0  0  0  0
    0.7746   -3.9319    0.0000 C   0  0  1  0  0  0  0  0  0  0  0  0
    1.2118   -3.2322    0.0000 C   0  0  2  0  0  0  0  0  0  0  0  0
    2.0363   -3.2610    0.0000 O   0  0  0  0  0  0  0  0  0  0  0  0
    0.8245   -2.5038    0.0000 C   0  0  0  0  0  0  0  0  0  0  0  0
    0.0000   -2.4750    0.0000 C   0  0  2  0  0  0  0  0  0  0  0  0
   -0.4372   -3.1746    0.0000 O   0  0  0  0  0  0  0  0  0  0  0  0
   -0.0499   -3.9031    0.0000 C   0  0  2  0  0  0  0  0  0  0  0  0
   -0.4871   -4.6027    0.0000 C   0  0  1  0  0  0  0  0  0  0  0  0
   -0.0997   -5.3311    0.0000 O   0  0  0  0  0  0  0  0  0  0  0  0
   -1.3116   -4.5739    0.0000 C   0  0  2  0  0  0  0  0  0  0  0  0
   -1.6989   -3.8455    0.0000 O   0  0  0  0  0  0  0  0  0  0  0  0
   -1.7487   -5.2736    0.0000 C   0  0  0  0  0  0  0  0  0  0  0  0
   -1.3614   -6.0020    0.0000 O   0  0  0  0  0  0  0  0  0  0  0  0
    0.0000   -1.6500    0.0000 O   0  0  0  0  0  0  0  0  0  0  0  0
    0.7145   -1.2375    0.0000 C   0  0  0  0  0  0  0  0  0  0  0  0
    0.7145   -0.4125    0.0000 C   0  0  0  0  0  0  0  0  0  0  0  0
    1.4289    0.0000    0.0000 C   0  0  0  0  0  0  0  0  0  0  0  0
    2.1434   -0.4125    0.0000 C   0  0  0  0  0  0  0  0  0  0  0  0
    2.8579    0.0000    0.0000 C   0  0  0  0  0  0  0  0  0  0  0  0
    2.8579    0.8250    0.0000 C   0  0  0  0  0  0  0  0  0  0  0  0
    3.5724   -0.4125    0.0000 C   0  0  0  0  0  0  0  0  0  0  0  0
    3.5724   -1.2375    0.0000 C   0  0  0  0  0  0  0  0  0  0  0  0
    4.2868   -1.6500    0.0000 O   0  0  0  0  0  0  0  0  0  0  0  0
    2.8579   -1.6500    0.0000 O   0  0  0  0  0  0  0  0  0  0  0  0
    2.1434   -1.2375    0.0000 C   0  0  0  0  0  0  0  0  0  0  0  0
    1.4289   -1.6500    0.0000 C   0  0  0  0  0  0  0  0  0  0  0  0
   -0.6840   -2.0137    0.0000 C   0  0  0  0  0  0  0  0  0  0  0  0
   -1.4255   -2.3753    0.0000 O   0  0  0  0  0  0  0  0  0  0  0  0
   -0.6264   -1.1907    0.0000 O   0  0  0  0  0  0  0  0  0  0  0  0
  1  2  1  0  0  0  0
  2  3  2  0  0  0  0
  2  4  1  0  0  0  0
  5  4  1  6  0  0  0
  5  6  1  0  0  0  0
  6  7  1  1  0  0  0
  6  8  1  0  0  0  0
  8  9  1  0  0  0  0
  9 10  1  0  0  0  0
 10 11  1  0  0  0  0
  5 11  1  0  0  0  0
 11 12  1  1  0  0  0
 12 13  1  1  0  0  0
 12 14  1  0  0  0  0
 14 15  1  1  0  0  0
 14 16  1  0  0  0  0
 16 17  1  0  0  0  0
  9 18  1  6  0  0  0
 18 19  1  0  0  0  0
 19 20  2  0  0  0  0
 20 21  1  0  0  0  0
 21 22  2  0  0  0  0
 22 23  1  0  0  0  0
 23 24  1  0  0  0  0
 23 25  2  0  0  0  0
 25 26  1  0  0  0  0
 26 27  2  0  0  0  0
 26 28  1  0  0  0  0
 28 29  1  0  0  0  0
 22 29  1  0  0  0  0
 29 30  2  0  0  0  0
 19 30  1  0  0  0  0
  9 31  1  1  0  0  0
 31 32  1  0  0  0  0
 31 33  2  0  0  0  0
M  END
> <DRUGBANK_ID>
DB01768

> <DRUG_GROUPS>
experimental

> <GENERIC_NAME>
Methylumbelliferyl Sialic Acid

> <CHEMICAL_FORMULA>
C21H25NO11

> <MOLECULAR_WEIGHT>
467.4233

> <EXACT_MASS>
467.142760647

> <IUPAC_NAME>
(2S,4R,5S,6S)-5-acetamido-4-hydroxy-2-[(4-methyl-2-oxo-2H-chromen-7-yl)oxy]-6-[(1S,2R)-1,2,3-trihydroxypropyl]oxane-2-carboxylic acid

> <IUPAC_TRADITIONAL_NAME>
(2S,4R,5S,6S)-5-acetamido-4-hydroxy-2-[(4-methyl-2-oxochromen-7-yl)oxy]-6-[(1S,2R)-1,2,3-trihydroxypropyl]oxane-2-carboxylic acid

> <INCHI_IDENTIFIER>
InChI=1S/C21H25NO11/c1-9-5-16(27)31-15-6-11(3-4-12(9)15)32-21(20(29)30)7-13(25)17(22-10(2)24)19(33-21)18(28)14(26)8-23/h3-6,13-14,17-19,23,25-26,28H,7-8H2,1-2H3,(H,22,24)(H,29,30)/t13-,14-,17+,18+,19+,21-/m1/s1

> <INCHI_KEY>
InChIKey=KKDWIUJBUSOPGC-CJRKPKEDSA-N

> <SMILES>
CC(=O)N[C@H]1[C@H](O)C[C@@](OC2=CC=C3C(C)=CC(=O)OC3=C2)(O[C@@H]1[C@@H](O)[C@H](O)CO)C(O)=O

> <JCHEM_ACCEPTOR_COUNT>
10

> <JCHEM_DONOR_COUNT>
6

> <JCHEM_ACIDIC_PKA>
2.81

> <JCHEM_BASIC_PKA>
-0.38

> <JCHEM_PHYSIOLOGICAL_CHARGE>
-1

> <ALOGPS_LOGP>
-0.91

> <JCHEM_LOGP>
-1.1

> <ALOGPS_LOGS>
-2.1

> <JCHEM_POLARIZABILITY>
44.7

> <JCHEM_POLAR_SURFACE_AREA>
192.08

> <JCHEM_REFRACTIVITY>
107.81

> <JCHEM_ROTATABLE_BOND_COUNT>
7

> <ALOGPS_SOLUBILITY>
3.88e+00 g/l __ 

$$$$
