1058
  Mrv0541 02231215122D          

 23 26  0  0  1  0            999 V2000
    3.8014    1.4494    0.0000 O   0  0  0  0  0  0  0  0  0  0  0  0
    5.2682   -1.8991    0.0000 O   0  0  0  0  0  0  0  0  0  0  0  0
    5.9961   -0.6330    0.0000 N   0  0  0  0  0  0  0  0  0  0  0  0
    4.5111    0.2091    0.0000 N   0  0  0  0  0  0  0  0  0  0  0  0
    5.9961    0.1920    0.0000 C   0  0  0  0  0  0  0  0  0  0  0  0
    3.0821    0.2147    0.0000 C   0  0  0  0  0  0  0  0  0  0  0  0
    5.2586    0.6330    0.0000 C   0  0  0  0  0  0  0  0  0  0  0  0
    3.0789   -0.6103    0.0000 C   0  0  0  0  0  0  0  0  0  0  0  0
    2.3693    0.6299    0.0000 C   0  0  0  0  0  0  0  0  0  0  0  0
    3.7982    0.6244    0.0000 C   0  0  0  0  0  0  0  0  0  0  0  0
    2.3629   -1.0201    0.0000 C   0  0  0  0  0  0  0  0  0  0  0  0
    1.6532    0.2201    0.0000 C   0  0  0  0  0  0  0  0  0  0  0  0
    6.7106    0.6045    0.0000 C   0  0  0  0  0  0  0  0  0  0  0  0
    6.7106   -1.0455    0.0000 C   0  0  0  0  0  0  0  0  0  0  0  0
    4.5111   -0.6502    0.0000 C   0  0  0  0  0  0  0  0  0  0  0  0
    1.6500   -0.6049    0.0000 C   0  0  0  0  0  0  0  0  0  0  0  0
    7.4251   -0.6330    0.0000 C   0  0  0  0  0  0  0  0  0  0  0  0
    5.2586   -1.0742    0.0000 C   0  0  0  0  0  0  0  0  0  0  0  0
    7.4251    0.1920    0.0000 C   0  0  0  0  0  0  0  0  0  0  0  0
    6.6973    1.4637    0.0000 C   0  0  0  0  0  0  0  0  0  0  0  0
    8.1758    0.6101    0.0000 C   0  0  0  0  0  0  0  0  0  0  0  0
    7.4382    1.8991    0.0000 C   0  0  0  0  0  0  0  0  0  0  0  0
    8.1824    1.4694    0.0000 C   0  0  0  0  0  0  0  0  0  0  0  0
  1 10  2  0  0  0  0
  2 18  2  0  0  0  0
  3  5  1  0  0  0  0
  3 14  1  0  0  0  0
  3 18  1  0  0  0  0
  4  7  1  0  0  0  0
  4 10  1  0  0  0  0
  4 15  1  0  0  0  0
  5  7  1  0  0  0  0
  5 13  1  0  0  0  0
  6  8  1  0  0  0  0
  6  9  1  0  0  0  0
  6 10  1  0  0  0  0
  8 11  1  0  0  0  0
  9 12  1  0  0  0  0
 11 16  1  0  0  0  0
 12 16  1  0  0  0  0
 13 19  1  0  0  0  0
 13 20  2  0  0  0  0
 14 17  1  0  0  0  0
 15 18  1  0  0  0  0
 17 19  1  0  0  0  0
 19 21  2  0  0  0  0
 20 22  1  0  0  0  0
 21 23  1  0  0  0  0
 22 23  2  0  0  0  0
M  END
> <DRUGBANK_ID>
DB01058

> <DRUG_GROUPS>
approved

> <GENERIC_NAME>
Praziquantel

> <BRANDS>


> <CHEMICAL_FORMULA>
C19H24N2O2

> <MOLECULAR_WEIGHT>
312.4061

> <EXACT_MASS>
312.183778022

> <IUPAC_NAME>
2-cyclohexanecarbonyl-1H,2H,3H,4H,6H,7H,11bH-piperazino[2,1-a]isoquinolin-4-one

> <IUPAC_TRADITIONAL_NAME>
praziquantel

> <INCHI_IDENTIFIER>
InChI=1S/C19H24N2O2/c22-18-13-20(19(23)15-7-2-1-3-8-15)12-17-16-9-5-4-6-14(16)10-11-21(17)18/h4-6,9,15,17H,1-3,7-8,10-13H2

> <INCHI_KEY>
InChIKey=FSVJFNAIGNNGKK-UHFFFAOYSA-N

> <SMILES>
O=C(C1CCCCC1)N1CC2N(CCC3=CC=CC=C23)C(=O)C1

> <JCHEM_ACCEPTOR_COUNT>
2

> <JCHEM_DONOR_COUNT>
0

> <JCHEM_ACIDIC_PKA>
19.38

> <JCHEM_BASIC_PKA>
-0.22

> <JCHEM_PHYSIOLOGICAL_CHARGE>
0

> <ALOGPS_LOGP>
2.42

> <JCHEM_LOGP>
2.3

> <ALOGPS_LOGS>
-2.9

> <JCHEM_POLARIZABILITY>
34.84

> <JCHEM_POLAR_SURFACE_AREA>
40.62

> <JCHEM_REFRACTIVITY>
88.79

> <JCHEM_ROTATABLE_BOND_COUNT>
1

> <ALOGPS_SOLUBILITY>
3.81e-01 g/l __ 

$$$$
