SUB
  Mrv0541 02231215402D          

 34 36  0  0  0  0            999 V2000
   -1.0493   -0.1254    0.0000 C   0  0  0  0  0  0  0  0  0  0  0  0
   -1.4618    0.5890    0.0000 N   0  0  0  0  0  0  0  0  0  0  0  0
   -1.0493    1.3035    0.0000 C   0  0  1  0  0  0  0  0  0  0  0  0
    1.0132    0.5890    0.0000 C   0  0  0  0  0  0  0  0  0  0  0  0
   -1.4618    2.0180    0.0000 C   0  0  0  0  0  0  0  0  0  0  0  0
   -1.0493    2.7324    0.0000 C   0  0  0  0  0  0  0  0  0  0  0  0
   -1.4618    3.4469    0.0000 C   0  0  0  0  0  0  0  0  0  0  0  0
   -1.0493    4.1614    0.0000 C   0  0  0  0  0  0  0  0  0  0  0  0
   -0.2243    4.1614    0.0000 C   0  0  0  0  0  0  0  0  0  0  0  0
    0.1882    3.4469    0.0000 C   0  0  0  0  0  0  0  0  0  0  0  0
   -0.2243    2.7324    0.0000 C   0  0  0  0  0  0  0  0  0  0  0  0
    0.1882    0.5890    0.0000 O   0  0  0  0  0  0  0  0  0  0  0  0
    0.1882    2.0180    0.0000 O   0  0  0  0  0  0  0  0  0  0  0  0
   -0.2243    1.3035    0.0000 C   0  0  0  0  0  0  0  0  0  0  0  0
    1.4257   -0.1254    0.0000 C   0  0  0  0  0  0  0  0  0  0  0  0
   -1.4618   -2.2689    0.0000 C   0  0  0  0  0  0  0  0  0  0  0  0
   -0.2243   -0.1254    0.0000 O   0  0  0  0  0  0  0  0  0  0  0  0
   -2.2868   -2.2689    0.0000 C   0  0  0  0  0  0  0  0  0  0  0  0
   -2.6993   -1.5544    0.0000 S   0  0  0  0  0  0  0  0  0  0  0  0
   -2.2868   -0.8399    0.0000 C   0  0  0  0  0  0  0  0  0  0  0  0
   -1.4618   -0.8399    0.0000 C   0  0  2  0  0  0  0  0  0  0  0  0
   -1.0493   -1.5544    0.0000 N   0  0  0  0  0  0  0  0  0  0  0  0
   -0.2243   -1.5544    0.0000 S   0  0  0  0  0  0  0  0  0  0  0  0
    0.6007   -1.5544    0.0000 C   0  0  0  0  0  0  0  0  0  0  0  0
    1.0132   -0.8399    0.0000 C   0  0  0  0  0  0  0  0  0  0  0  0
    1.8382   -0.8399    0.0000 C   0  0  0  0  0  0  0  0  0  0  0  0
    2.2507   -1.5544    0.0000 C   0  0  0  0  0  0  0  0  0  0  0  0
    1.8382   -2.2689    0.0000 C   0  0  0  0  0  0  0  0  0  0  0  0
    1.0132   -2.2689    0.0000 C   0  0  0  0  0  0  0  0  0  0  0  0
   -0.2243   -2.3794    0.0000 O   0  0  0  0  0  0  0  0  0  0  0  0
   -0.2243   -0.7294    0.0000 O   0  0  0  0  0  0  0  0  0  0  0  0
    3.0757   -1.5544    0.0000 C   0  0  0  0  0  0  0  0  0  0  0  0
   -1.6332    1.3035    0.0000 H   0  0  0  0  0  0  0  0  0  0  0  0
   -1.7538   -0.3342    0.0000 H   0  0  0  0  0  0  0  0  0  0  0  0
  1  2  1  0  0  0  0
  1 17  2  0  0  0  0
 21  1  1  1  0  0  0
  3  2  1  1  0  0  0
  3  5  1  0  0  0  0
  3 14  1  0  0  0  0
  3 33  1  6  0  0  0
  4 12  1  0  0  0  0
  4 15  1  0  0  0  0
  5  6  1  0  0  0  0
  6  7  2  0  0  0  0
  6 11  1  0  0  0  0
  7  8  1  0  0  0  0
  8  9  2  0  0  0  0
  9 10  1  0  0  0  0
 10 11  2  0  0  0  0
 12 14  1  0  0  0  0
 13 14  2  0  0  0  0
 16 18  1  0  0  0  0
 16 22  1  0  0  0  0
 18 19  1  0  0  0  0
 19 20  1  0  0  0  0
 20 21  1  0  0  0  0
 21 22  1  0  0  0  0
 21 34  1  6  0  0  0
 22 23  1  0  0  0  0
 23 24  1  0  0  0  0
 23 30  2  0  0  0  0
 23 31  2  0  0  0  0
 24 25  2  0  0  0  0
 24 29  1  0  0  0  0
 25 26  1  0  0  0  0
 26 27  2  0  0  0  0
 27 28  1  0  0  0  0
 27 32  1  0  0  0  0
 28 29  2  0  0  0  0
M  END
> <DRUGBANK_ID>
DB01712

> <DRUG_GROUPS>
experimental

> <GENERIC_NAME>
(3r)-4-(P-Toluenesulfonyl)-1,4-Thiazane-3-Carboxylicacid-L-Phenylalanine Ethyl Ester

> <CHEMICAL_FORMULA>
C23H28N2O5S2

> <MOLECULAR_WEIGHT>
476.609

> <EXACT_MASS>
476.143963396

> <IUPAC_NAME>
ethyl (2S)-2-{[(3R)-4-[(4-methylbenzene)sulfonyl]thiomorpholin-3-yl]formamido}-3-phenylpropanoate

> <IUPAC_TRADITIONAL_NAME>
ethyl (2S)-2-{[(3R)-4-(4-methylbenzenesulfonyl)thiomorpholin-3-yl]formamido}-3-phenylpropanoate

> <INCHI_IDENTIFIER>
InChI=1S/C23H28N2O5S2/c1-3-30-23(27)20(15-18-7-5-4-6-8-18)24-22(26)21-16-31-14-13-25(21)32(28,29)19-11-9-17(2)10-12-19/h4-12,20-21H,3,13-16H2,1-2H3,(H,24,26)/t20-,21-/m0/s1

> <INCHI_KEY>
InChIKey=NDDSSAGSYFVBTG-SFTDATJTSA-N

> <SMILES>
[H][C@@](CC1=CC=CC=C1)(NC(=O)[C@]1([H])CSCCN1S(=O)(=O)C1=CC=C(C)C=C1)C(=O)OCC

> <JCHEM_ACCEPTOR_COUNT>
4

> <JCHEM_DONOR_COUNT>
1

> <JCHEM_ACIDIC_PKA>
11.85

> <JCHEM_BASIC_PKA>
-5.2

> <JCHEM_PHYSIOLOGICAL_CHARGE>
0

> <ALOGPS_LOGP>
2.59

> <JCHEM_LOGP>
3.21

> <ALOGPS_LOGS>
-5.1

> <JCHEM_POLARIZABILITY>
48.97

> <JCHEM_POLAR_SURFACE_AREA>
92.78

> <JCHEM_REFRACTIVITY>
125.67

> <JCHEM_ROTATABLE_BOND_COUNT>
8

> <ALOGPS_SOLUBILITY>
3.48e-03 g/l __ 

$$$$
