1601
  Mrv0541 02231215352D          

 46 49  0  0  1  0            999 V2000
    5.9370   -0.4125    0.0000 O   0  0  0  0  0  0  0  0  0  0  0  0
    7.3659    2.0625    0.0000 O   0  0  0  0  0  0  0  0  0  0  0  0
    4.5080    2.8876    0.0000 O   0  0  0  0  0  0  0  0  0  0  0  0
    5.2224   -0.8250    0.0000 O   0  0  0  0  0  0  0  0  0  0  0  0
    3.7935   -1.6500    0.0000 O   0  0  0  0  0  0  0  0  0  0  0  0
    5.9370    2.8876    0.0000 N   0  0  0  0  0  0  0  0  0  0  0  0
    6.6515    0.8250    0.0000 N   0  0  0  0  0  0  0  0  0  0  0  0
    5.9370   -2.0625    0.0000 N   0  0  0  0  0  0  0  0  0  0  0  0
    5.2224    4.1251    0.0000 N   0  0  0  0  0  0  0  0  0  0  0  0
    7.3659    0.4125    0.0000 C   0  0  2  0  0  0  0  0  0  0  0  0
    5.9370    2.0625    0.0000 C   0  0  1  0  0  0  0  0  0  0  0  0
    7.3659   -0.4125    0.0000 C   0  0  0  0  0  0  0  0  0  0  0  0
    6.6515   -0.8250    0.0000 C   0  0  1  0  0  0  0  0  0  0  0  0
    5.2224    1.6500    0.0000 C   0  0  0  0  0  0  0  0  0  0  0  0
    6.6515   -1.6500    0.0000 C   0  0  2  0  0  0  0  0  0  0  0  0
    8.0804    0.8250    0.0000 C   0  0  0  0  0  0  0  0  0  0  0  0
    6.6515    1.6500    0.0000 C   0  0  0  0  0  0  0  0  0  0  0  0
    6.6515    3.3001    0.0000 C   0  0  0  0  0  0  0  0  0  0  0  0
    6.6515    4.1251    0.0000 C   0  0  0  0  0  0  0  0  0  0  0  0
    7.3659   -2.0625    0.0000 C   0  0  0  0  0  0  0  0  0  0  0  0
    5.2224    3.3001    0.0000 C   0  0  0  0  0  0  0  0  0  0  0  0
    4.5080    2.0625    0.0000 C   0  0  0  0  0  0  0  0  0  0  0  0
    5.2224    0.8250    0.0000 C   0  0  0  0  0  0  0  0  0  0  0  0
    5.9370    4.5376    0.0000 C   0  0  0  0  0  0  0  0  0  0  0  0
    8.7949    0.4125    0.0000 C   0  0  0  0  0  0  0  0  0  0  0  0
    7.3659   -2.8876    0.0000 C   0  0  0  0  0  0  0  0  0  0  0  0
    5.2224   -1.6500    0.0000 C   0  0  0  0  0  0  0  0  0  0  0  0
    9.5094    0.8250    0.0000 C   0  0  0  0  0  0  0  0  0  0  0  0
    8.7949   -0.4125    0.0000 C   0  0  0  0  0  0  0  0  0  0  0  0
    8.0804   -3.3001    0.0000 C   0  0  0  0  0  0  0  0  0  0  0  0
    6.6515   -3.3001    0.0000 C   0  0  0  0  0  0  0  0  0  0  0  0
    4.5080   -2.0625    0.0000 C   0  0  0  0  0  0  0  0  0  0  0  0
   10.2239    0.4125    0.0000 C   0  0  0  0  0  0  0  0  0  0  0  0
    9.5094   -0.8250    0.0000 C   0  0  0  0  0  0  0  0  0  0  0  0
   10.2239   -0.4125    0.0000 C   0  0  0  0  0  0  0  0  0  0  0  0
    8.0804   -4.1251    0.0000 C   0  0  0  0  0  0  0  0  0  0  0  0
    6.6515   -4.1251    0.0000 C   0  0  0  0  0  0  0  0  0  0  0  0
    7.3659   -4.5376    0.0000 C   0  0  0  0  0  0  0  0  0  0  0  0
    3.0791   -2.0625    0.0000 C   0  0  0  0  0  0  0  0  0  0  0  0
    3.0791   -2.8876    0.0000 C   0  0  0  0  0  0  0  0  0  0  0  0
    2.3645   -1.6500    0.0000 C   0  0  0  0  0  0  0  0  0  0  0  0
    2.3645   -3.3001    0.0000 C   0  0  0  0  0  0  0  0  0  0  0  0
    1.6500   -2.0625    0.0000 C   0  0  0  0  0  0  0  0  0  0  0  0
    3.7935   -3.3001    0.0000 C   0  0  0  0  0  0  0  0  0  0  0  0
    2.3645   -0.8250    0.0000 C   0  0  0  0  0  0  0  0  0  0  0  0
    1.6500   -2.8876    0.0000 C   0  0  0  0  0  0  0  0  0  0  0  0
 13  1  1  1  0  0  0
  2 17  2  0  0  0  0
  3 21  2  0  0  0  0
  4 27  2  0  0  0  0
  5 32  1  0  0  0  0
  5 39  1  0  0  0  0
  6 11  1  0  0  0  0
  6 18  1  0  0  0  0
  6 21  1  0  0  0  0
 10  7  1  1  0  0  0
  7 17  1  0  0  0  0
 15  8  1  6  0  0  0
  8 27  1  0  0  0  0
  9 21  1  0  0  0  0
  9 24  1  0  0  0  0
 10 12  1  0  0  0  0
 10 16  1  0  0  0  0
 11 14  1  0  0  0  0
 11 17  1  6  0  0  0
 12 13  1  0  0  0  0
 13 15  1  0  0  0  0
 14 22  1  0  0  0  0
 14 23  1  0  0  0  0
 15 20  1  0  0  0  0
 16 25  1  0  0  0  0
 18 19  1  0  0  0  0
 19 24  1  0  0  0  0
 20 26  1  0  0  0  0
 25 28  2  0  0  0  0
 25 29  1  0  0  0  0
 26 30  2  0  0  0  0
 26 31  1  0  0  0  0
 27 32  1  0  0  0  0
 28 33  1  0  0  0  0
 29 34  2  0  0  0  0
 30 36  1  0  0  0  0
 31 37  2  0  0  0  0
 33 35  2  0  0  0  0
 34 35  1  0  0  0  0
 36 38  2  0  0  0  0
 37 38  1  0  0  0  0
 39 40  2  0  0  0  0
 39 41  1  0  0  0  0
 40 42  1  0  0  0  0
 40 44  1  0  0  0  0
 41 43  2  0  0  0  0
 41 45  1  0  0  0  0
 42 46  2  0  0  0  0
 43 46  1  0  0  0  0
M  END
> <DRUGBANK_ID>
DB01601

> <DRUG_GROUPS>
approved

> <GENERIC_NAME>
Lopinavir

> <SYNONYMS>


> <BRANDS>


> <CHEMICAL_FORMULA>
C37H48N4O5

> <MOLECULAR_WEIGHT>
628.8008

> <EXACT_MASS>
628.362470666

> <IUPAC_NAME>
(2S)-N-[(2S,4S,5S)-5-[2-(2,6-dimethylphenoxy)acetamido]-4-hydroxy-1,6-diphenylhexan-2-yl]-3-methyl-2-(2-oxo-1,3-diazinan-1-yl)butanamide

> <IUPAC_TRADITIONAL_NAME>
lopinavir

> <INCHI_IDENTIFIER>
InChI=1S/C37H48N4O5/c1-25(2)34(41-20-12-19-38-37(41)45)36(44)39-30(21-28-15-7-5-8-16-28)23-32(42)31(22-29-17-9-6-10-18-29)40-33(43)24-46-35-26(3)13-11-14-27(35)4/h5-11,13-18,25,30-32,34,42H,12,19-24H2,1-4H3,(H,38,45)(H,39,44)(H,40,43)/t30-,31-,32-,34-/m0/s1

> <INCHI_KEY>
InChIKey=KJHKTHWMRKYKJE-SUGCFTRWSA-N

> <SMILES>
CC(C)[C@H](N1CCCNC1=O)C(=O)N[C@H](C[C@H](O)[C@H](CC1=CC=CC=C1)NC(=O)COC1=C(C)C=CC=C1C)CC1=CC=CC=C1

> <JCHEM_ACCEPTOR_COUNT>
5

> <JCHEM_DONOR_COUNT>
4

> <JCHEM_ACIDIC_PKA>
13.39

> <JCHEM_BASIC_PKA>
-1.5

> <JCHEM_PHYSIOLOGICAL_CHARGE>
0

> <ALOGPS_LOGP>
3.91

> <JCHEM_LOGP>
4.69

> <ALOGPS_LOGS>
-5.5

> <JCHEM_POLARIZABILITY>
69.2

> <JCHEM_POLAR_SURFACE_AREA>
120

> <JCHEM_REFRACTIVITY>
179.36

> <JCHEM_ROTATABLE_BOND_COUNT>
15

> <ALOGPS_SOLUBILITY>
1.92e-03 g/l __ 

$$$$
