1516
  Mrv0541 02231215322D          

 16 16  0  0  1  0            999 V2000
    5.2224    1.3654    0.0000 O   0  0  0  0  0  0  0  0  0  0  0  0
    2.3645    1.3654    0.0000 O   0  0  0  0  0  0  0  0  0  0  0  0
    3.7935    2.1904    0.0000 O   0  0  0  0  0  0  0  0  0  0  0  0
    3.0791   -2.3472    0.0000 N   0  0  0  0  0  0  0  0  0  0  0  0
    3.7935   -1.1096    0.0000 C   0  0  0  0  0  0  0  0  0  0  0  0
    3.0791   -1.5222    0.0000 C   0  0  0  0  0  0  0  0  0  0  0  0
    3.7935   -0.2846    0.0000 C   0  0  0  0  0  0  0  0  0  0  0  0
    3.0791    0.1279    0.0000 C   0  0  0  0  0  0  0  0  0  0  0  0
    4.5080    0.1279    0.0000 C   0  0  0  0  0  0  0  0  0  0  0  0
    2.3645   -1.1096    0.0000 C   0  0  0  0  0  0  0  0  0  0  0  0
    4.5080    0.9529    0.0000 C   0  0  0  0  0  0  0  0  0  0  0  0
    3.0791    0.9529    0.0000 C   0  0  0  0  0  0  0  0  0  0  0  0
    3.7935    1.3654    0.0000 C   0  0  0  0  0  0  0  0  0  0  0  0
    5.9370    0.9529    0.0000 C   0  0  0  0  0  0  0  0  0  0  0  0
    1.6500    0.9529    0.0000 C   0  0  0  0  0  0  0  0  0  0  0  0
    4.5080    2.6029    0.0000 C   0  0  0  0  0  0  0  0  0  0  0  0
  1 11  1  0  0  0  0
  1 14  1  0  0  0  0
  2 12  1  0  0  0  0
  2 15  1  0  0  0  0
  3 13  1  0  0  0  0
  3 16  1  0  0  0  0
  4  6  1  0  0  0  0
  5  6  1  0  0  0  0
  5  7  1  0  0  0  0
  6 10  1  0  0  0  0
  7  8  2  0  0  0  0
  7  9  1  0  0  0  0
  8 12  1  0  0  0  0
  9 11  2  0  0  0  0
 11 13  1  0  0  0  0
 12 13  2  0  0  0  0
M  END
> <DRUGBANK_ID>
DB01516

> <DRUG_GROUPS>
experimental; illicit

> <GENERIC_NAME>
3,4,5-Trimethoxyamphetamine

> <CHEMICAL_FORMULA>
C12H19NO3

> <MOLECULAR_WEIGHT>
225.2842

> <EXACT_MASS>
225.136493479

> <IUPAC_NAME>
1-(3,4,5-trimethoxyphenyl)propan-2-amine

> <IUPAC_TRADITIONAL_NAME>
3,4,5-trimeo amphetamine

> <INCHI_IDENTIFIER>
InChI=1S/C12H19NO3/c1-8(13)5-9-6-10(14-2)12(16-4)11(7-9)15-3/h6-8H,5,13H2,1-4H3

> <INCHI_KEY>
InChIKey=WGTASENVNYJZBK-UHFFFAOYSA-N

> <SMILES>
COC1=CC(CC(C)N)=CC(OC)=C1OC

> <JCHEM_ACCEPTOR_COUNT>
4

> <JCHEM_DONOR_COUNT>
1

> <JCHEM_BASIC_PKA>
10

> <JCHEM_PHYSIOLOGICAL_CHARGE>
1

> <ALOGPS_LOGP>
1.54

> <JCHEM_LOGP>
1.33

> <ALOGPS_LOGS>
-2.7

> <JCHEM_POLARIZABILITY>
24.93

> <JCHEM_POLAR_SURFACE_AREA>
53.71

> <JCHEM_REFRACTIVITY>
63.09

> <JCHEM_ROTATABLE_BOND_COUNT>
5

> <ALOGPS_SOLUBILITY>
4.79e-01 g/l __ 

$$$$
