
  Mrv0541 02231215412D          

 25 28  0  0  0  0            999 V2000
    4.7812    1.9354    0.0000 N   0  0  0  0  0  0  0  0  0  0  0  0
    4.0668    2.3479    0.0000 C   0  0  0  0  0  0  0  0  0  0  0  0
    4.0668    3.1729    0.0000 N   0  3  0  0  0  0  0  0  0  0  0  0
    3.3523    1.9354    0.0000 C   0  0  0  0  0  0  0  0  0  0  0  0
    3.3523    1.1104    0.0000 C   0  0  0  0  0  0  0  0  0  0  0  0
    2.6378    0.6979    0.0000 C   0  0  0  0  0  0  0  0  0  0  0  0
    1.9233    1.1104    0.0000 C   0  0  0  0  0  0  0  0  0  0  0  0
    1.1387    0.8555    0.0000 N   0  0  0  0  0  0  0  0  0  0  0  0
    0.6538    1.5229    0.0000 C   0  0  0  0  0  0  0  0  0  0  0  0
    1.1387    2.1904    0.0000 N   0  0  0  0  0  0  0  0  0  0  0  0
    1.9233    1.9354    0.0000 C   0  0  0  0  0  0  0  0  0  0  0  0
    2.6378    2.3479    0.0000 C   0  0  0  0  0  0  0  0  0  0  0  0
   -0.1712    1.5229    0.0000 C   0  0  0  0  0  0  0  0  0  0  0  0
   -0.5837    0.8085    0.0000 C   0  0  0  0  0  0  0  0  0  0  0  0
   -1.4087    0.8085    0.0000 C   0  0  0  0  0  0  0  0  0  0  0  0
   -1.8212    1.5229    0.0000 C   0  0  0  0  0  0  0  0  0  0  0  0
   -1.4087    2.2374    0.0000 C   0  0  0  0  0  0  0  0  0  0  0  0
   -1.8212    2.9519    0.0000 C   0  0  0  0  0  0  0  0  0  0  0  0
   -2.6462    2.9519    0.0000 C   0  0  0  0  0  0  0  0  0  0  0  0
   -3.0587    3.6664    0.0000 C   0  0  0  0  0  0  0  0  0  0  0  0
   -2.6462    4.3808    0.0000 C   0  0  0  0  0  0  0  0  0  0  0  0
   -1.8212    4.3808    0.0000 C   0  0  0  0  0  0  0  0  0  0  0  0
   -1.4087    3.6664    0.0000 C   0  0  0  0  0  0  0  0  0  0  0  0
   -0.5837    2.2374    0.0000 C   0  0  0  0  0  0  0  0  0  0  0  0
   -0.1712    2.9519    0.0000 O   0  5  0  0  0  0  0  0  0  0  0  0
  1  2  1  0  0  0  0
  2  3  2  0  0  0  0
  2  4  1  0  0  0  0
  4  5  4  0  0  0  0
  5  6  4  0  0  0  0
  6  7  4  0  0  0  0
  7  8  4  0  0  0  0
  8  9  4  0  0  0  0
  9 10  4  0  0  0  0
 10 11  4  0  0  0  0
  7 11  4  0  0  0  0
 11 12  4  0  0  0  0
  4 12  4  0  0  0  0
  9 13  1  0  0  0  0
 13 14  2  0  0  0  0
 14 15  1  0  0  0  0
 15 16  2  0  0  0  0
 16 17  1  0  0  0  0
 17 18  1  0  0  0  0
 18 19  2  0  0  0  0
 19 20  1  0  0  0  0
 20 21  2  0  0  0  0
 21 22  1  0  0  0  0
 22 23  2  0  0  0  0
 18 23  1  0  0  0  0
 17 24  2  0  0  0  0
 13 24  1  0  0  0  0
 24 25  1  0  0  0  0
M  END
> <DRUGBANK_ID>
DB01725

> <DRUG_GROUPS>
experimental

> <GENERIC_NAME>
CRA_7806

> <CHEMICAL_FORMULA>
C20H15N4O

> <MOLECULAR_WEIGHT>
327.3593

> <EXACT_MASS>
327.124586122

> <IUPAC_NAME>
2-{5-[amino(iminiumyl)methyl]-1,3-benzodiazol-2-yl}-6-phenylbenzen-1-olate

> <IUPAC_TRADITIONAL_NAME>
2-{5-[amino(iminio)methyl]-1,3-benzodiazol-2-yl}-6-phenylbenzenolate

> <SMILES>
NC(=[NH2+])c1ccc2nc(nc2c1)C1=CC=CC(C2=CC=CC=C2)=C1[O-]

> <JCHEM_ACCEPTOR_COUNT>
4

> <JCHEM_DONOR_COUNT>
2

> <JCHEM_ACIDIC_PKA>
8.4

> <JCHEM_BASIC_PKA>
10.74

> <JCHEM_PHYSIOLOGICAL_CHARGE>
1

> <ALOGPS_LOGP>
1.16

> <JCHEM_LOGP>
3.63

> <ALOGPS_LOGS>
-5.2

> <JCHEM_POLARIZABILITY>
36.46

> <JCHEM_POLAR_SURFACE_AREA>
100.45

> <JCHEM_REFRACTIVITY>
129.64

> <JCHEM_ROTATABLE_BOND_COUNT>
3

> <ALOGPS_SOLUBILITY>
2.16e-03 g/l __ 

$$$$
