
  Mrv0541 04191212172D          

 16 16  0  0  1  0            999 V2000
    4.1890   -6.4628    0.0000 C   0  0  0  0  0  0  0  0  0  0  0  0
    4.9035   -6.0503    0.0000 C   0  0  0  0  0  0  0  0  0  0  0  0
    5.6179   -6.4628    0.0000 C   0  0  0  0  0  0  0  0  0  0  0  0
    6.3324   -6.0503    0.0000 C   0  0  0  0  0  0  0  0  0  0  0  0
    4.1890   -7.2879    0.0000 F   0  0  0  0  0  0  0  0  0  0  0  0
    3.4745   -6.0503    0.0000 F   0  0  0  0  0  0  0  0  0  0  0  0
    7.0469   -6.4628    0.0000 C   0  0  0  0  0  0  0  0  0  0  0  0
    7.7614   -5.2253    0.0000 N   0  0  0  0  0  0  0  0  0  0  0  0
    4.9035   -5.2253    0.0000 C   0  0  0  0  0  0  0  0  0  0  0  0
    7.7614   -6.0503    0.0000 C   0  0  1  0  0  0  0  0  0  0  0  0
    5.6179   -4.8128    0.0000 C   0  0  0  0  0  0  0  0  0  0  0  0
    6.3324   -5.2253    0.0000 C   0  0  0  0  0  0  0  0  0  0  0  0
    8.4759   -6.4628    0.0000 C   0  0  0  0  0  0  0  0  0  0  0  0
    3.4690   -6.8822    0.0000 F   0  0  0  0  0  0  0  0  0  0  0  0
    7.0469   -4.8128    0.0000 C   0  0  0  0  0  0  0  0  0  0  0  0
    7.0469   -3.9878    0.0000 C   0  0  0  0  0  0  0  0  0  0  0  0
  2  1  1  0  0  0  0
  5  1  1  0  0  0  0
  6  1  1  0  0  0  0
  3  2  2  0  0  0  0
  9  2  1  0  0  0  0
  4  3  1  0  0  0  0
  7  4  1  0  0  0  0
 12  4  2  0  0  0  0
 10  7  1  0  0  0  0
 10  8  1  1  0  0  0
 11  9  2  0  0  0  0
 13 10  1  0  0  0  0
 12 11  1  0  0  0  0
  1 14  1  0  0  0  0
  8 15  1  0  0  0  0
 15 16  1  0  0  0  0
M  END
> <DRUGBANK_ID>
DB01191

> <DRUG_GROUPS>
approved; illicit; withdrawn

> <GENERIC_NAME>
Dexfenfluramine

> <SYNONYMS>
(+)-fenfluramine; (S)-fenfluramine; Dextrofenfluramine

> <BRANDS>


> <CHEMICAL_FORMULA>
C12H16F3N

> <MOLECULAR_WEIGHT>
231.2573

> <EXACT_MASS>
231.123484132

> <IUPAC_NAME>
ethyl[(2S)-1-[3-(trifluoromethyl)phenyl]propan-2-yl]amine

> <IUPAC_TRADITIONAL_NAME>
(+)-fenfluramine

> <INCHI_IDENTIFIER>
InChI=1S/C12H16F3N/c1-3-16-9(2)7-10-5-4-6-11(8-10)12(13,14)15/h4-6,8-9,16H,3,7H2,1-2H3/t9-/m0/s1

> <INCHI_KEY>
InChIKey=DBGIVFWFUFKIQN-VIFPVBQESA-N

> <SMILES>
CCN[C@@H](C)CC1=CC=CC(=C1)C(F)(F)F

> <JCHEM_ACCEPTOR_COUNT>
1

> <JCHEM_DONOR_COUNT>
1

> <JCHEM_BASIC_PKA>
10.22

> <JCHEM_PHYSIOLOGICAL_CHARGE>
1

> <ALOGPS_LOGP>
3.3

> <JCHEM_LOGP>
3.47

> <ALOGPS_LOGS>
-4

> <JCHEM_POLARIZABILITY>
22.69

> <JCHEM_POLAR_SURFACE_AREA>
12.03

> <JCHEM_REFRACTIVITY>
59.2

> <JCHEM_ROTATABLE_BOND_COUNT>
5

> <ALOGPS_SOLUBILITY>
2.15e-02 g/l __ 

$$$$
