
  Mrv0541 02231215402D          

 57 62  0  0  1  0            999 V2000
  -13.6620    8.4329    0.0000 N   0  0  0  0  0  0  0  0  0  0  0  0
  -13.1100    7.8198    0.0000 C   0  0  0  0  0  0  0  0  0  0  0  0
  -12.3030    7.9913    0.0000 N   0  0  0  0  0  0  0  0  0  0  0  0
  -11.7510    7.3782    0.0000 C   0  0  0  0  0  0  0  0  0  0  0  0
  -12.0059    6.5936    0.0000 N   0  0  0  0  0  0  0  0  0  0  0  0
  -12.8129    6.4221    0.0000 C   0  0  0  0  0  0  0  0  0  0  0  0
  -13.3649    7.0352    0.0000 C   0  0  0  0  0  0  0  0  0  0  0  0
  -14.1186    6.6996    0.0000 N   0  0  0  0  0  0  0  0  0  0  0  0
  -14.0324    5.8791    0.0000 C   0  0  0  0  0  0  0  0  0  0  0  0
  -13.2254    5.7076    0.0000 N   0  0  0  0  0  0  0  0  0  0  0  0
  -12.8898    4.9539    0.0000 C   0  0  2  0  0  0  0  0  0  0  0  0
  -12.0829    4.7824    0.0000 O   0  0  0  0  0  0  0  0  0  0  0  0
  -11.9966    3.9619    0.0000 C   0  0  1  0  0  0  0  0  0  0  0  0
  -11.2822    3.5494    0.0000 C   0  0  0  0  0  0  0  0  0  0  0  0
  -10.5677    3.9619    0.0000 O   0  0  0  0  0  0  0  0  0  0  0  0
   -9.8532    3.5494    0.0000 P   0  0  2  0  0  0  0  0  0  0  0  0
  -10.2657    2.8350    0.0000 O   0  0  0  0  0  0  0  0  0  0  0  0
   -9.4407    4.2639    0.0000 O   0  0  0  0  0  0  0  0  0  0  0  0
   -9.1388    3.1369    0.0000 O   0  0  0  0  0  0  0  0  0  0  0  0
   -8.4243    3.5494    0.0000 P   0  0  1  0  0  0  0  0  0  0  0  0
   -8.0118    2.8350    0.0000 O   0  0  0  0  0  0  0  0  0  0  0  0
   -8.8368    4.2639    0.0000 O   0  0  0  0  0  0  0  0  0  0  0  0
   -7.7098    3.9619    0.0000 O   0  0  0  0  0  0  0  0  0  0  0  0
   -6.9953    3.5494    0.0000 P   0  0  0  0  0  0  0  0  0  0  0  0
   -7.4078    2.8350    0.0000 O   0  0  0  0  0  0  0  0  0  0  0  0
   -6.5828    4.2639    0.0000 O   0  0  0  0  0  0  0  0  0  0  0  0
   -6.2809    3.1369    0.0000 O   0  0  0  0  0  0  0  0  0  0  0  0
   -5.5664    3.5494    0.0000 P   0  0  2  0  0  0  0  0  0  0  0  0
   -5.1539    2.8350    0.0000 O   0  0  0  0  0  0  0  0  0  0  0  0
   -5.9789    4.2639    0.0000 O   0  0  0  0  0  0  0  0  0  0  0  0
   -4.8519    3.9619    0.0000 O   0  0  0  0  0  0  0  0  0  0  0  0
   -4.1375    3.5494    0.0000 P   0  0  1  0  0  0  0  0  0  0  0  0
   -4.5500    2.8350    0.0000 O   0  0  0  0  0  0  0  0  0  0  0  0
   -3.7250    4.2639    0.0000 O   0  0  0  0  0  0  0  0  0  0  0  0
   -3.4230    3.1369    0.0000 O   0  0  0  0  0  0  0  0  0  0  0  0
   -2.7085    3.5494    0.0000 C   0  0  0  0  0  0  0  0  0  0  0  0
   -1.9940    3.1369    0.0000 C   0  0  2  0  0  0  0  0  0  0  0  0
   -1.2404    3.4725    0.0000 O   0  0  0  0  0  0  0  0  0  0  0  0
   -0.6883    2.8594    0.0000 C   0  0  2  0  0  0  0  0  0  0  0  0
   -1.1008    2.1449    0.0000 C   0  0  2  0  0  0  0  0  0  0  0  0
   -0.7653    1.3912    0.0000 O   0  0  0  0  0  0  0  0  0  0  0  0
   -1.9078    2.3165    0.0000 C   0  0  1  0  0  0  0  0  0  0  0  0
   -2.5209    1.7644    0.0000 O   0  0  0  0  0  0  0  0  0  0  0  0
    0.1321    2.9456    0.0000 N   0  0  0  0  0  0  0  0  0  0  0  0
    0.6842    2.3325    0.0000 C   0  0  0  0  0  0  0  0  0  0  0  0
    1.4379    2.6681    0.0000 N   0  0  0  0  0  0  0  0  0  0  0  0
    1.3516    3.4886    0.0000 C   0  0  0  0  0  0  0  0  0  0  0  0
    0.5446    3.6601    0.0000 C   0  0  0  0  0  0  0  0  0  0  0  0
    0.2897    4.4447    0.0000 N   0  0  0  0  0  0  0  0  0  0  0  0
    0.8417    5.0578    0.0000 C   0  0  0  0  0  0  0  0  0  0  0  0
    1.6487    4.8863    0.0000 N   0  0  0  0  0  0  0  0  0  0  0  0
    1.9037    4.1017    0.0000 C   0  0  0  0  0  0  0  0  0  0  0  0
    2.7106    3.9301    0.0000 N   0  0  0  0  0  0  0  0  0  0  0  0
  -12.7503    3.6264    0.0000 C   0  0  2  0  0  0  0  0  0  0  0  0
  -12.9218    2.8194    0.0000 O   0  0  0  0  0  0  0  0  0  0  0  0
  -13.3023    4.2395    0.0000 C   0  0  1  0  0  0  0  0  0  0  0  0
  -14.1228    4.1532    0.0000 O   0  0  0  0  0  0  0  0  0  0  0  0
  1  2  1  0  0  0  0
  2  3  2  0  0  0  0
  3  4  1  0  0  0  0
  4  5  2  0  0  0  0
  5  6  1  0  0  0  0
  6  7  2  0  0  0  0
  2  7  1  0  0  0  0
  7  8  1  0  0  0  0
  8  9  2  0  0  0  0
  9 10  1  0  0  0  0
  6 10  1  0  0  0  0
 11 10  1  6  0  0  0
 11 12  1  0  0  0  0
 12 13  1  0  0  0  0
 13 14  1  1  0  0  0
 14 15  1  0  0  0  0
 16 15  1  6  0  0  0
 16 17  1  1  0  0  0
 16 18  2  0  0  0  0
 16 19  1  0  0  0  0
 20 19  1  1  0  0  0
 20 21  1  6  0  0  0
 20 22  2  0  0  0  0
 20 23  1  0  0  0  0
 23 24  1  0  0  0  0
 24 25  1  0  0  0  0
 24 26  2  0  0  0  0
 24 27  1  0  0  0  0
 28 27  1  6  0  0  0
 28 29  1  1  0  0  0
 28 30  2  0  0  0  0
 28 31  1  0  0  0  0
 32 31  1  1  0  0  0
 32 33  1  6  0  0  0
 32 34  2  0  0  0  0
 32 35  1  0  0  0  0
 35 36  1  0  0  0  0
 37 36  1  6  0  0  0
 37 38  1  0  0  0  0
 38 39  1  0  0  0  0
 39 40  1  0  0  0  0
 40 41  1  6  0  0  0
 40 42  1  0  0  0  0
 37 42  1  0  0  0  0
 42 43  1  1  0  0  0
 39 44  1  1  0  0  0
 44 45  1  0  0  0  0
 45 46  2  0  0  0  0
 46 47  1  0  0  0  0
 47 48  2  0  0  0  0
 44 48  1  0  0  0  0
 48 49  1  0  0  0  0
 49 50  2  0  0  0  0
 50 51  1  0  0  0  0
 51 52  2  0  0  0  0
 47 52  1  0  0  0  0
 52 53  1  0  0  0  0
 13 54  1  0  0  0  0
 54 55  1  6  0  0  0
 54 56  1  0  0  0  0
 11 56  1  0  0  0  0
 56 57  1  1  0  0  0
M  END
> <DRUGBANK_ID>
DB01717

> <DRUG_GROUPS>
experimental

> <GENERIC_NAME>
Bis(Adenosine)-5'-Pentaphosphate

> <CHEMICAL_FORMULA>
C20H29N10O22P5

> <MOLECULAR_WEIGHT>
916.3669

> <EXACT_MASS>
916.014595222

> <IUPAC_NAME>
{[(2S,3R,4R,5R)-5-(6-amino-9H-purin-9-yl)-3,4-dihydroxyoxolan-2-yl]methoxy}[({[({[({[(2S,3R,4R,5R)-5-(6-amino-9H-purin-9-yl)-3,4-dihydroxyoxolan-2-yl]methoxy}(hydroxy)phosphoryl)oxy](hydroxy)phosphoryl}oxy)(hydroxy)phosphoryl]oxy}(hydroxy)phosphoryl)oxy]phosphinic acid

> <IUPAC_TRADITIONAL_NAME>
[(2S,3R,4R,5R)-5-(6-aminopurin-9-yl)-3,4-dihydroxyoxolan-2-yl]methoxy({[({[(2S,3R,4R,5R)-5-(6-aminopurin-9-yl)-3,4-dihydroxyoxolan-2-yl]methoxy(hydroxy)phosphoryl}oxy(hydroxy)phosphoryl)oxy(hydroxy)phosphoryl]oxy(hydroxy)phosphoryl}oxy)phosphinic acid

> <INCHI_IDENTIFIER>
InChI=1S/C20H29N10O22P5/c21-15-9-17(25-3-23-15)29(5-27-9)19-13(33)11(31)7(47-19)1-45-53(35,36)49-55(39,40)51-57(43,44)52-56(41,42)50-54(37,38)46-2-8-12(32)14(34)20(48-8)30-6-28-10-16(22)24-4-26-18(10)30/h3-8,11-14,19-20,31-34H,1-2H2,(H,35,36)(H,37,38)(H,39,40)(H,41,42)(H,43,44)(H2,21,23,25)(H2,22,24,26)/t7-,8-,11-,12-,13+,14+,19+,20+/m0/s1

> <INCHI_KEY>
InChIKey=OIMACDRJUANHTJ-APSSSFQSSA-N

> <SMILES>
NC1=NC=NC2=C1N=CN2[C@@H]1O[C@@H](CO[P@](O)(=O)O[P@@](O)(=O)OP(O)(=O)O[P@](O)(=O)O[P@@](O)(=O)OC[C@@H]2O[C@H]([C@H](O)[C@H]2O)N2C=NC3=C2N=CN=C3N)[C@H](O)[C@H]1O

> <JCHEM_ACCEPTOR_COUNT>
24

> <JCHEM_DONOR_COUNT>
11

> <JCHEM_ACIDIC_PKA>
0.42

> <JCHEM_BASIC_PKA>
5.3

> <JCHEM_PHYSIOLOGICAL_CHARGE>
-5

> <ALOGPS_LOGP>
-0.2

> <JCHEM_LOGP>
-11

> <ALOGPS_LOGS>
-2.1

> <JCHEM_POLARIZABILITY>
71.98

> <JCHEM_POLAR_SURFACE_AREA>
480.5

> <JCHEM_REFRACTIVITY>
176.98

> <JCHEM_ROTATABLE_BOND_COUNT>
16

> <ALOGPS_SOLUBILITY>
6.92e+00 g/l __ 

$$$$
