
  Mrv0541 02231215462D          

  5  4  0  0  0  0            999 V2000
    2.0625   -0.7145    0.0000 C   0  0  0  0  0  0  0  0  0  0  0  0
    1.2375   -0.7145    0.0000 N   0  0  0  0  0  0  0  0  0  0  0  0
    0.8250   -1.4289    0.0000 C   0  0  0  0  0  0  0  0  0  0  0  0
    0.8250    0.0000    0.0000 C   0  0  0  0  0  0  0  0  0  0  0  0
    0.0000    0.0000    0.0000 O   0  0  0  0  0  0  0  0  0  0  0  0
  1  2  1  0  0  0  0
  2  3  1  0  0  0  0
  2  4  1  0  0  0  0
  4  5  2  0  0  0  0
M  END
> <DRUGBANK_ID>
DB01844

> <DRUG_GROUPS>
experimental

> <GENERIC_NAME>
Dimethylformamide

> <CHEMICAL_FORMULA>
C3H7NO

> <MOLECULAR_WEIGHT>
73.0938

> <EXACT_MASS>
73.052763851

> <IUPAC_NAME>
N,N-dimethylformamide

> <IUPAC_TRADITIONAL_NAME>
dimethylformamide

> <INCHI_IDENTIFIER>
InChI=1S/C3H7NO/c1-4(2)3-5/h3H,1-2H3

> <INCHI_KEY>
InChIKey=ZMXDDKWLCZADIW-UHFFFAOYSA-N

> <SMILES>
CN(C)C=O

> <JCHEM_ACCEPTOR_COUNT>
1

> <JCHEM_DONOR_COUNT>
0

> <JCHEM_BASIC_PKA>
-0.65

> <JCHEM_PHYSIOLOGICAL_CHARGE>
0

> <ALOGPS_LOGP>
-0.77

> <JCHEM_LOGP>
-0.63

> <ALOGPS_LOGS>
1

> <JCHEM_POLARIZABILITY>
7.69

> <JCHEM_POLAR_SURFACE_AREA>
20.31

> <JCHEM_REFRACTIVITY>
19.77

> <JCHEM_ROTATABLE_BOND_COUNT>
0

> <ALOGPS_SOLUBILITY>
7.25e+02 g/l __ 

$$$$
