
  Mrv0541 02231215422D          

 31 33  0  0  1  0            999 V2000
   -8.6341    2.2247    0.0000 C   0  0  0  0  0  0  0  0  0  0  0  0
   -7.9196    2.6372    0.0000 C   0  0  0  0  0  0  0  0  0  0  0  0
   -7.2052    2.2247    0.0000 C   0  0  1  0  0  0  0  0  0  0  0  0
   -7.2052    1.3997    0.0000 C   0  0  0  0  0  0  0  0  0  0  0  0
   -6.4907    2.6372    0.0000 C   0  0  2  0  0  0  0  0  0  0  0  0
   -6.4907    3.4622    0.0000 N   0  0  0  0  0  0  0  0  0  0  0  0
   -5.7762    2.2247    0.0000 C   0  0  0  0  0  0  0  0  0  0  0  0
   -5.7762    1.3997    0.0000 O   0  0  0  0  0  0  0  0  0  0  0  0
   -5.0617    2.6372    0.0000 N   0  0  0  0  0  0  0  0  0  0  0  0
   -4.3473    2.2247    0.0000 S   0  0  0  0  0  0  0  0  0  0  0  0
   -4.7598    1.5103    0.0000 O   0  0  0  0  0  0  0  0  0  0  0  0
   -3.9348    2.9392    0.0000 O   0  0  0  0  0  0  0  0  0  0  0  0
   -3.6328    1.8122    0.0000 N   0  0  0  0  0  0  0  0  0  0  0  0
   -2.9183    2.2247    0.0000 C   0  0  0  0  0  0  0  0  0  0  0  0
   -2.2039    1.8122    0.0000 C   0  0  2  0  0  0  0  0  0  0  0  0
   -1.4502    2.1478    0.0000 O   0  0  0  0  0  0  0  0  0  0  0  0
   -0.8981    1.5347    0.0000 C   0  0  2  0  0  0  0  0  0  0  0  0
   -1.3106    0.8202    0.0000 C   0  0  2  0  0  0  0  0  0  0  0  0
   -0.9751    0.0665    0.0000 O   0  0  0  0  0  0  0  0  0  0  0  0
   -2.1176    0.9917    0.0000 C   0  0  1  0  0  0  0  0  0  0  0  0
   -2.7307    0.4397    0.0000 O   0  0  0  0  0  0  0  0  0  0  0  0
   -0.0777    1.6209    0.0000 N   0  0  0  0  0  0  0  0  0  0  0  0
    0.4744    1.0078    0.0000 C   0  0  0  0  0  0  0  0  0  0  0  0
    1.2280    1.3434    0.0000 N   0  0  0  0  0  0  0  0  0  0  0  0
    1.1418    2.1639    0.0000 C   0  0  0  0  0  0  0  0  0  0  0  0
    0.3348    2.3354    0.0000 C   0  0  0  0  0  0  0  0  0  0  0  0
    0.0799    3.1200    0.0000 N   0  0  0  0  0  0  0  0  0  0  0  0
    0.6319    3.7331    0.0000 C   0  0  0  0  0  0  0  0  0  0  0  0
    1.4389    3.5616    0.0000 N   0  0  0  0  0  0  0  0  0  0  0  0
    1.6938    2.7770    0.0000 C   0  0  0  0  0  0  0  0  0  0  0  0
    2.5008    2.6054    0.0000 N   0  0  0  0  0  0  0  0  0  0  0  0
  1  2  1  0  0  0  0
  2  3  1  0  0  0  0
  3  4  1  6  0  0  0
  3  5  1  0  0  0  0
  5  6  1  6  0  0  0
  5  7  1  0  0  0  0
  7  8  2  0  0  0  0
  7  9  1  0  0  0  0
  9 10  1  0  0  0  0
 10 11  2  0  0  0  0
 10 12  2  0  0  0  0
 10 13  1  0  0  0  0
 13 14  1  0  0  0  0
 15 14  1  6  0  0  0
 15 16  1  0  0  0  0
 16 17  1  0  0  0  0
 17 18  1  0  0  0  0
 18 19  1  6  0  0  0
 18 20  1  0  0  0  0
 15 20  1  0  0  0  0
 20 21  1  1  0  0  0
 17 22  1  1  0  0  0
 22 23  1  0  0  0  0
 23 24  2  0  0  0  0
 24 25  1  0  0  0  0
 25 26  2  0  0  0  0
 22 26  1  0  0  0  0
 26 27  1  0  0  0  0
 27 28  2  0  0  0  0
 28 29  1  0  0  0  0
 29 30  2  0  0  0  0
 25 30  1  0  0  0  0
 30 31  1  0  0  0  0
M  END
> <DRUGBANK_ID>
DB01755

> <DRUG_GROUPS>
experimental

> <GENERIC_NAME>
N-[Isoleucinyl]-N'-[Adenosyl]-Diaminosufone

> <CHEMICAL_FORMULA>
C16H26N8O6S

> <MOLECULAR_WEIGHT>
458.493

> <EXACT_MASS>
458.169601294

> <IUPAC_NAME>
(2S,3R)-2-amino-N-({[(2S,3R,4R,5R)-5-(6-amino-9H-purin-9-yl)-3,4-dihydroxyoxolan-2-yl]methyl}sulfamoyl)-3-methylpentanamide

> <IUPAC_TRADITIONAL_NAME>
(2S,3R)-2-amino-N-({[(2S,3R,4R,5R)-5-(6-aminopurin-9-yl)-3,4-dihydroxyoxolan-2-yl]methyl}sulfamoyl)-3-methylpentanamide

> <INCHI_IDENTIFIER>
InChI=1S/C16H26N8O6S/c1-3-7(2)9(17)15(27)23-31(28,29)22-4-8-11(25)12(26)16(30-8)24-6-21-10-13(18)19-5-20-14(10)24/h5-9,11-12,16,22,25-26H,3-4,17H2,1-2H3,(H,23,27)(H2,18,19,20)/t7-,8+,9+,11+,12-,16-/m1/s1

> <INCHI_KEY>
InChIKey=XVTRBLLRODNOJV-VRSYREPISA-N

> <SMILES>
CC[C@@H](C)[C@H](N)C(=O)NS(=O)(=O)NC[C@@H]1O[C@H]([C@H](O)[C@H]1O)N1C=NC2=C1N=CN=C2N

> <JCHEM_ACCEPTOR_COUNT>
12

> <JCHEM_DONOR_COUNT>
6

> <JCHEM_ACIDIC_PKA>
3.78

> <JCHEM_BASIC_PKA>
6.9

> <JCHEM_PHYSIOLOGICAL_CHARGE>
0

> <ALOGPS_LOGP>
-0.81

> <JCHEM_LOGP>
-3.3

> <ALOGPS_LOGS>
-2.3

> <JCHEM_POLARIZABILITY>
44.89

> <JCHEM_POLAR_SURFACE_AREA>
220.6

> <JCHEM_REFRACTIVITY>
107.69

> <JCHEM_ROTATABLE_BOND_COUNT>
6

> <ALOGPS_SOLUBILITY>
2.26e+00 g/l __ 

$$$$
