1275
  Mrv0541 02231215222D          

 12 13  0  0  0  0            999 V2000
    2.6954   -0.7582    0.0000 N   0  0  0  0  0  0  0  0  0  0  0  0
    2.0094    0.4298    0.0000 N   0  0  0  0  0  0  0  0  0  0  0  0
    2.0094    1.2219    0.0000 N   0  0  0  0  0  0  0  0  0  0  0  0
    2.0094   -1.1543    0.0000 N   0  0  0  0  0  0  0  0  0  0  0  0
    3.3813    0.4298    0.0000 C   0  0  0  0  0  0  0  0  0  0  0  0
    3.3813    1.2219    0.0000 C   0  0  0  0  0  0  0  0  0  0  0  0
    2.6954    0.0338    0.0000 C   0  0  0  0  0  0  0  0  0  0  0  0
    4.0893    0.0063    0.0000 C   0  0  0  0  0  0  0  0  0  0  0  0
    4.0893    1.6454    0.0000 C   0  0  0  0  0  0  0  0  0  0  0  0
    4.8070    0.4133    0.0000 C   0  0  0  0  0  0  0  0  0  0  0  0
    2.6954    1.6179    0.0000 C   0  0  0  0  0  0  0  0  0  0  0  0
    4.8070    1.2384    0.0000 C   0  0  0  0  0  0  0  0  0  0  0  0
  1  4  1  0  0  0  0
  1  7  1  0  0  0  0
  2  3  1  0  0  0  0
  2  7  2  0  0  0  0
  3 11  2  0  0  0  0
  5  6  1  0  0  0  0
  5  7  1  0  0  0  0
  5  8  2  0  0  0  0
  6  9  2  0  0  0  0
  6 11  1  0  0  0  0
  8 10  1  0  0  0  0
  9 12  1  0  0  0  0
 10 12  2  0  0  0  0
M  END
> <DRUGBANK_ID>
DB01275

> <DRUG_GROUPS>
approved

> <GENERIC_NAME>
Hydralazine

> <SALTS>
Hydralazine hydrochloride

> <BRANDS>
Apresoline

> <CHEMICAL_FORMULA>
C8H8N4

> <MOLECULAR_WEIGHT>
160.1759

> <EXACT_MASS>
160.074896276

> <IUPAC_NAME>
1-hydrazinylphthalazine

> <IUPAC_TRADITIONAL_NAME>
hydralazine

> <INCHI_IDENTIFIER>
InChI=1S/C8H8N4/c9-11-8-7-4-2-1-3-6(7)5-10-12-8/h1-5H,9H2,(H,11,12)

> <INCHI_KEY>
InChIKey=RPTUSVTUFVMDQK-UHFFFAOYSA-N

> <SMILES>
NNC1=NN=CC2=CC=CC=C12

> <JCHEM_ACCEPTOR_COUNT>
4

> <JCHEM_DONOR_COUNT>
2

> <JCHEM_ACIDIC_PKA>
17.69

> <JCHEM_BASIC_PKA>
6.4

> <JCHEM_PHYSIOLOGICAL_CHARGE>
0

> <ALOGPS_LOGP>
0.66

> <JCHEM_LOGP>
0.75

> <ALOGPS_LOGS>
-1.8

> <JCHEM_POLARIZABILITY>
16.06

> <JCHEM_POLAR_SURFACE_AREA>
63.83

> <JCHEM_REFRACTIVITY>
50.23

> <JCHEM_ROTATABLE_BOND_COUNT>
1

> <ALOGPS_SOLUBILITY>
2.61e+00 g/l __ 

$$$$
