
  Mrv0541 02231215412D          

 10 10  0  0  1  0            999 V2000
    2.1434   -0.4125    0.0000 C   0  0  0  0  0  0  0  0  0  0  0  0
    1.4289    0.0000    0.0000 C   0  0  2  0  0  0  0  0  0  0  0  0
    0.7145   -0.4125    0.0000 C   0  0  0  0  0  0  0  0  0  0  0  0
    0.0000    0.0000    0.0000 C   0  0  0  0  0  0  0  0  0  0  0  0
    0.0000    0.8250    0.0000 C   0  0  0  0  0  0  0  0  0  0  0  0
    0.7145    1.2375    0.0000 N   0  0  0  0  0  0  0  0  0  0  0  0
    1.4289    0.8250    0.0000 C   0  0  0  0  0  0  0  0  0  0  0  0
    0.7145    2.0625    0.0000 C   0  0  0  0  0  0  0  0  0  0  0  0
    0.0000    2.4750    0.0000 C   0  0  0  0  0  0  0  0  0  0  0  0
    1.4289    2.4750    0.0000 O   0  0  0  0  0  0  0  0  0  0  0  0
  2  1  1  6  0  0  0
  2  3  1  0  0  0  0
  3  4  1  0  0  0  0
  4  5  1  0  0  0  0
  5  6  1  0  0  0  0
  6  7  1  0  0  0  0
  2  7  1  0  0  0  0
  6  8  1  0  0  0  0
  8  9  1  0  0  0  0
  8 10  2  0  0  0  0
M  END
> <DRUGBANK_ID>
DB01742

> <DRUG_GROUPS>
experimental

> <GENERIC_NAME>
(3r)-1-Acetyl-3-Methylpiperidine

> <CHEMICAL_FORMULA>
C8H15NO

> <MOLECULAR_WEIGHT>
141.2108

> <EXACT_MASS>
141.115364107

> <IUPAC_NAME>
1-[(3R)-3-methylpiperidin-1-yl]ethan-1-one

> <IUPAC_TRADITIONAL_NAME>
1-[(3R)-3-methylpiperidin-1-yl]ethanone

> <INCHI_IDENTIFIER>
InChI=1S/C8H15NO/c1-7-4-3-5-9(6-7)8(2)10/h7H,3-6H2,1-2H3/t7-/m1/s1

> <INCHI_KEY>
InChIKey=XKFPNHDGLSYZRC-SSDOTTSWSA-N

> <SMILES>
C[C@@H]1CCCN(C1)C(C)=O

> <JCHEM_ACCEPTOR_COUNT>
1

> <JCHEM_DONOR_COUNT>
0

> <JCHEM_BASIC_PKA>
0.018

> <JCHEM_PHYSIOLOGICAL_CHARGE>
0

> <ALOGPS_LOGP>
0.91

> <JCHEM_LOGP>
0.63

> <ALOGPS_LOGS>
-0.01

> <JCHEM_POLARIZABILITY>
16.56

> <JCHEM_POLAR_SURFACE_AREA>
20.31

> <JCHEM_REFRACTIVITY>
40.87

> <JCHEM_ROTATABLE_BOND_COUNT>
0

> <ALOGPS_SOLUBILITY>
1.39e+02 g/l __ 

$$$$
