
  Mrv0541 02231215502D          

  6  6  0  0  0  0            999 V2000
    0.5678    1.9393    0.0000 C   0  0  0  0  0  0  0  0  0  0  0  0
    0.5678    1.1143    0.0000 C   0  0  0  0  0  0  0  0  0  0  0  0
    1.2352    0.6294    0.0000 C   0  0  0  0  0  0  0  0  0  0  0  0
    0.9803   -0.1553    0.0000 C   0  0  0  0  0  0  0  0  0  0  0  0
    0.1553   -0.1553    0.0000 N   0  0  0  0  0  0  0  0  0  0  0  0
   -0.0997    0.6294    0.0000 C   0  0  0  0  0  0  0  0  0  0  0  0
  1  2  1  0  0  0  0
  2  3  4  0  0  0  0
  3  4  4  0  0  0  0
  4  5  4  0  0  0  0
  5  6  4  0  0  0  0
  2  6  4  0  0  0  0
M  END
> <DRUGBANK_ID>
DB01932

> <DRUG_GROUPS>
experimental

> <GENERIC_NAME>
5-Methylpyrrole

> <CHEMICAL_FORMULA>
C5H6N

> <MOLECULAR_WEIGHT>
80.1078

> <EXACT_MASS>
80.050024197

> <IUPAC_NAME>
3-methylpyrrole

> <IUPAC_TRADITIONAL_NAME>
5-methylpyrrole

> <SMILES>
Cc1ccnc1

> <JCHEM_ACCEPTOR_COUNT>
1

> <JCHEM_DONOR_COUNT>
0

> <JCHEM_BASIC_PKA>
6.01

> <JCHEM_PHYSIOLOGICAL_CHARGE>
0

> <ALOGPS_LOGP>
1.11

> <JCHEM_LOGP>
0.94

> <ALOGPS_LOGS>
0.53

> <JCHEM_POLARIZABILITY>
8.85

> <JCHEM_POLAR_SURFACE_AREA>
12.89

> <JCHEM_REFRACTIVITY>
24.6

> <JCHEM_ROTATABLE_BOND_COUNT>
0

> <ALOGPS_SOLUBILITY>
2.76e+02 g/l __ 

$$$$
