1083
  Mrv0541 02231215142D          

 35 35  0  0  1  0            999 V2000
    6.6160   -0.3494    0.0000 O   0  0  0  0  0  0  0  0  0  0  0  0
    8.5796   -2.1277    0.0000 O   0  0  0  0  0  0  0  0  0  0  0  0
    5.2076    0.2340    0.0000 O   0  0  0  0  0  0  0  0  0  0  0  0
    9.5901   -1.1172    0.0000 O   0  0  0  0  0  0  0  0  0  0  0  0
   11.1267   -3.6643    0.0000 O   0  0  0  0  0  0  0  0  0  0  0  0
   10.7568   -2.2840    0.0000 N   0  0  0  0  0  0  0  0  0  0  0  0
    6.6160   -1.1744    0.0000 C   0  0  2  0  0  0  0  0  0  0  0  0
    5.7909   -1.1744    0.0000 C   0  0  2  0  0  0  0  0  0  0  0  0
    7.1993   -1.7578    0.0000 C   0  0  0  0  0  0  0  0  0  0  0  0
    5.2076   -1.7578    0.0000 C   0  0  0  0  0  0  0  0  0  0  0  0
    7.9962   -1.5443    0.0000 C   0  0  2  0  0  0  0  0  0  0  0  0
    5.7909   -0.3494    0.0000 C   0  0  0  0  0  0  0  0  0  0  0  0
    8.2097   -0.7474    0.0000 C   0  0  0  0  0  0  0  0  0  0  0  0
    4.4107   -1.5443    0.0000 C   0  0  0  0  0  0  0  0  0  0  0  0
    9.0067   -0.5338    0.0000 C   0  0  0  0  0  0  0  0  0  0  0  0
    3.8273   -2.1277    0.0000 C   0  0  0  0  0  0  0  0  0  0  0  0
    9.2202    0.2631    0.0000 C   0  0  0  0  0  0  0  0  0  0  0  0
   10.0171    0.4766    0.0000 C   0  0  0  0  0  0  0  0  0  0  0  0
    3.0303   -1.9141    0.0000 C   0  0  0  0  0  0  0  0  0  0  0  0
   10.2306    1.2735    0.0000 C   0  0  0  0  0  0  0  0  0  0  0  0
    9.3766   -1.9141    0.0000 C   0  0  0  0  0  0  0  0  0  0  0  0
    9.9599   -2.4975    0.0000 C   0  0  2  0  0  0  0  0  0  0  0  0
   11.0276    1.4870    0.0000 C   0  0  0  0  0  0  0  0  0  0  0  0
    2.4469   -2.4975    0.0000 C   0  0  0  0  0  0  0  0  0  0  0  0
    9.7464   -3.2944    0.0000 C   0  0  0  0  0  0  0  0  0  0  0  0
   11.2411    2.2840    0.0000 C   0  0  0  0  0  0  0  0  0  0  0  0
    8.9495   -3.5079    0.0000 C   0  0  0  0  0  0  0  0  0  0  0  0
   12.0380    2.4975    0.0000 C   0  0  0  0  0  0  0  0  0  0  0  0
    1.6500   -2.2840    0.0000 C   0  0  0  0  0  0  0  0  0  0  0  0
   12.2515    3.2944    0.0000 C   0  0  0  0  0  0  0  0  0  0  0  0
    8.3661   -2.9245    0.0000 C   0  0  0  0  0  0  0  0  0  0  0  0
    8.7359   -4.3049    0.0000 C   0  0  0  0  0  0  0  0  0  0  0  0
   13.0485    3.5079    0.0000 C   0  0  0  0  0  0  0  0  0  0  0  0
   11.3402   -2.8674    0.0000 C   0  0  0  0  0  0  0  0  0  0  0  0
   13.2620    4.3049    0.0000 C   0  0  0  0  0  0  0  0  0  0  0  0
  1  7  1  0  0  0  0
  1 12  1  0  0  0  0
 11  2  1  6  0  0  0
  2 21  1  0  0  0  0
  3 12  2  0  0  0  0
  4 21  2  0  0  0  0
  5 34  2  0  0  0  0
 22  6  1  1  0  0  0
  6 34  1  0  0  0  0
  7  8  1  0  0  0  0
  7  9  1  1  0  0  0
  8 10  1  6  0  0  0
  8 12  1  0  0  0  0
  9 11  1  0  0  0  0
 10 14  1  0  0  0  0
 11 13  1  0  0  0  0
 13 15  1  0  0  0  0
 14 16  1  0  0  0  0
 15 17  1  0  0  0  0
 16 19  1  0  0  0  0
 17 18  1  0  0  0  0
 18 20  1  0  0  0  0
 19 24  1  0  0  0  0
 20 23  1  0  0  0  0
 21 22  1  0  0  0  0
 22 25  1  0  0  0  0
 23 26  1  0  0  0  0
 24 29  1  0  0  0  0
 25 27  1  0  0  0  0
 26 28  1  0  0  0  0
 27 31  1  0  0  0  0
 27 32  1  0  0  0  0
 28 30  1  0  0  0  0
 30 33  1  0  0  0  0
 33 35  1  0  0  0  0
M  END
> <DRUGBANK_ID>
DB01083

> <DRUG_GROUPS>
approved; investigational

> <GENERIC_NAME>
Orlistat

> <SYNONYMS>
Orlipastatum

> <BRANDS>


> <CHEMICAL_FORMULA>
C29H53NO5

> <MOLECULAR_WEIGHT>
495.7348

> <EXACT_MASS>
495.392373811

> <IUPAC_NAME>
(2S)-1-[(2S,3S)-3-hexyl-4-oxooxetan-2-yl]tridecan-2-yl (2S)-2-formamido-4-methylpentanoate

> <IUPAC_TRADITIONAL_NAME>
orlistat

> <INCHI_IDENTIFIER>
InChI=1S/C29H53NO5/c1-5-7-9-11-12-13-14-15-16-18-24(34-29(33)26(30-22-31)20-23(3)4)21-27-25(28(32)35-27)19-17-10-8-6-2/h22-27H,5-21H2,1-4H3,(H,30,31)/t24-,25-,26-,27-/m0/s1

> <INCHI_KEY>
InChIKey=AHLBNYSZXLDEJQ-FWEHEUNISA-N

> <SMILES>
CCCCCCCCCCC[C@@H](C[C@@H]1OC(=O)[C@H]1CCCCCC)OC(=O)[C@H](CC(C)C)NC=O

> <JCHEM_ACCEPTOR_COUNT>
3

> <JCHEM_DONOR_COUNT>
1

> <JCHEM_ACIDIC_PKA>
12.74

> <JCHEM_BASIC_PKA>
-0.91

> <JCHEM_PHYSIOLOGICAL_CHARGE>
0

> <ALOGPS_LOGP>
7.61

> <JCHEM_LOGP>
8.11

> <ALOGPS_LOGS>
-6.7

> <JCHEM_POLARIZABILITY>
61.12

> <JCHEM_POLAR_SURFACE_AREA>
81.7

> <JCHEM_REFRACTIVITY>
139.94

> <JCHEM_ROTATABLE_BOND_COUNT>
23

> <ALOGPS_SOLUBILITY>
9.19e-05 g/l __ 

$$$$
