1072
  Mrv0541 02231215132D          

 51 53  0  0  1  0            999 V2000
    5.2224   -1.2375    0.0000 O   0  0  0  0  0  0  0  0  0  0  0  0
    4.5080   -1.6500    0.0000 O   0  0  0  0  0  0  0  0  0  0  0  0
    8.0804   -1.2375    0.0000 O   0  0  0  0  0  0  0  0  0  0  0  0
    2.3645   -3.7126    0.0000 O   0  0  0  0  0  0  0  0  0  0  0  0
    5.9370   -4.1251    0.0000 O   0  0  0  0  0  0  0  0  0  0  0  0
    1.6500   -2.4751    0.0000 O   0  0  0  0  0  0  0  0  0  0  0  0
    7.3659   -4.1251    0.0000 O   0  0  0  0  0  0  0  0  0  0  0  0
    3.7935   -0.4125    0.0000 N   0  0  0  0  0  0  0  0  0  0  0  0
    6.6515   -0.4125    0.0000 N   0  0  0  0  0  0  0  0  0  0  0  0
    3.0791   -2.4751    0.0000 N   0  0  0  0  0  0  0  0  0  0  0  0
    6.6515   -1.2375    0.0000 N   0  0  0  0  0  0  0  0  0  0  0  0
    6.6515   -2.8876    0.0000 N   0  0  0  0  0  0  0  0  0  0  0  0
    8.0804    3.7126    0.0000 N   0  0  0  0  0  0  0  0  0  0  0  0
    2.3645   -1.2375    0.0000 C   0  0  0  0  0  0  0  0  0  0  0  0
    4.5080    0.0000    0.0000 C   0  0  2  0  0  0  0  0  0  0  0  0
    3.0791   -1.6500    0.0000 C   0  0  1  0  0  0  0  0  0  0  0  0
    5.2224   -0.4125    0.0000 C   0  0  2  0  0  0  0  0  0  0  0  0
    8.0804   -2.8876    0.0000 C   0  0  0  0  0  0  0  0  0  0  0  0
    5.9370    0.0000    0.0000 C   0  0  0  0  0  0  0  0  0  0  0  0
    7.3659   -2.4751    0.0000 C   0  0  1  0  0  0  0  0  0  0  0  0
    4.5080    0.8250    0.0000 C   0  0  0  0  0  0  0  0  0  0  0  0
    3.7935   -1.2375    0.0000 C   0  0  0  0  0  0  0  0  0  0  0  0
    1.6500   -0.8250    0.0000 C   0  0  0  0  0  0  0  0  0  0  0  0
    1.9520   -1.9520    0.0000 C   0  0  0  0  0  0  0  0  0  0  0  0
    2.7770   -0.5231    0.0000 C   0  0  0  0  0  0  0  0  0  0  0  0
    7.3659   -1.6500    0.0000 C   0  0  0  0  0  0  0  0  0  0  0  0
    8.4929   -2.1731    0.0000 C   0  0  0  0  0  0  0  0  0  0  0  0
    7.6679   -3.6020    0.0000 C   0  0  0  0  0  0  0  0  0  0  0  0
    8.7949   -3.3001    0.0000 C   0  0  0  0  0  0  0  0  0  0  0  0
    7.3659    0.0000    0.0000 C   0  0  0  0  0  0  0  0  0  0  0  0
    3.7935    1.2375    0.0000 C   0  0  0  0  0  0  0  0  0  0  0  0
    7.3659    0.8250    0.0000 C   0  0  0  0  0  0  0  0  0  0  0  0
    2.3645   -2.8876    0.0000 C   0  0  0  0  0  0  0  0  0  0  0  0
    3.0791    0.8250    0.0000 C   0  0  0  0  0  0  0  0  0  0  0  0
    3.7935    2.0625    0.0000 C   0  0  0  0  0  0  0  0  0  0  0  0
    6.6515   -3.7126    0.0000 C   0  0  0  0  0  0  0  0  0  0  0  0
    6.6515    1.2375    0.0000 C   0  0  0  0  0  0  0  0  0  0  0  0
    8.0804    1.2375    0.0000 C   0  0  0  0  0  0  0  0  0  0  0  0
    2.3645    1.2375    0.0000 C   0  0  0  0  0  0  0  0  0  0  0  0
    3.0791    2.4751    0.0000 C   0  0  0  0  0  0  0  0  0  0  0  0
    2.3645    2.0625    0.0000 C   0  0  0  0  0  0  0  0  0  0  0  0
    6.6515    2.0625    0.0000 C   0  0  0  0  0  0  0  0  0  0  0  0
    8.0804    2.0625    0.0000 C   0  0  0  0  0  0  0  0  0  0  0  0
    7.3659    2.4751    0.0000 C   0  0  0  0  0  0  0  0  0  0  0  0
    1.6500   -4.1251    0.0000 C   0  0  0  0  0  0  0  0  0  0  0  0
    7.3659    3.3001    0.0000 C   0  0  0  0  0  0  0  0  0  0  0  0
    5.9370   -4.9501    0.0000 C   0  0  0  0  0  0  0  0  0  0  0  0
    6.6515    3.7126    0.0000 C   0  0  0  0  0  0  0  0  0  0  0  0
    6.6515    4.5376    0.0000 C   0  0  0  0  0  0  0  0  0  0  0  0
    8.0804    4.5376    0.0000 C   0  0  0  0  0  0  0  0  0  0  0  0
    7.3659    4.9501    0.0000 C   0  0  0  0  0  0  0  0  0  0  0  0
 17  1  1  6  0  0  0
  2 22  2  0  0  0  0
  3 26  2  0  0  0  0
  4 33  1  0  0  0  0
  4 45  1  0  0  0  0
  5 36  1  0  0  0  0
  5 47  1  0  0  0  0
  6 33  2  0  0  0  0
  7 36  2  0  0  0  0
 15  8  1  1  0  0  0
  8 22  1  0  0  0  0
  9 11  1  0  0  0  0
  9 19  1  0  0  0  0
  9 30  1  0  0  0  0
 16 10  1  1  0  0  0
 10 33  1  0  0  0  0
 11 26  1  0  0  0  0
 20 12  1  6  0  0  0
 12 36  1  0  0  0  0
 13 46  1  0  0  0  0
 13 50  2  0  0  0  0
 14 16  1  0  0  0  0
 14 23  1  0  0  0  0
 14 24  1  0  0  0  0
 14 25  1  0  0  0  0
 15 17  1  0  0  0  0
 15 21  1  0  0  0  0
 16 22  1  0  0  0  0
 17 19  1  0  0  0  0
 18 20  1  0  0  0  0
 18 27  1  0  0  0  0
 18 28  1  0  0  0  0
 18 29  1  0  0  0  0
 20 26  1  0  0  0  0
 21 31  1  0  0  0  0
 30 32  1  0  0  0  0
 31 34  2  0  0  0  0
 31 35  1  0  0  0  0
 32 37  2  0  0  0  0
 32 38  1  0  0  0  0
 34 39  1  0  0  0  0
 35 40  2  0  0  0  0
 37 42  1  0  0  0  0
 38 43  2  0  0  0  0
 39 41  2  0  0  0  0
 40 41  1  0  0  0  0
 42 44  2  0  0  0  0
 43 44  1  0  0  0  0
 44 46  1  0  0  0  0
 46 48  2  0  0  0  0
 48 49  1  0  0  0  0
 49 51  2  0  0  0  0
 50 51  1  0  0  0  0
M  END
> <DRUGBANK_ID>
DB01072

> <DRUG_GROUPS>
approved; investigational

> <GENERIC_NAME>
Atazanavir

> <SYNONYMS>
ATZ

> <SALTS>
Atazanavir sulfate

> <BRANDS>


> <CHEMICAL_FORMULA>
C38H52N6O7

> <MOLECULAR_WEIGHT>
704.8555

> <EXACT_MASS>
704.389748048

> <IUPAC_NAME>
methyl N-[(1S)-1-{N'-[(2S,3S)-2-hydroxy-3-[(2S)-2-[(methoxycarbonyl)amino]-3,3-dimethylbutanamido]-4-phenylbutyl]-N'-{[4-(pyridin-2-yl)phenyl]methyl}hydrazinecarbonyl}-2,2-dimethylpropyl]carbamate

> <IUPAC_TRADITIONAL_NAME>
methyl N-[(1S)-1-{N'-[(2S,3S)-2-hydroxy-3-[(2S)-2-[(methoxycarbonyl)amino]-3,3-dimethylbutanamido]-4-phenylbutyl]-N'-{[4-(pyridin-2-yl)phenyl]methyl}hydrazinecarbonyl}-2,2-dimethylpropyl]carbamate

> <INCHI_IDENTIFIER>
InChI=1S/C38H52N6O7/c1-37(2,3)31(41-35(48)50-7)33(46)40-29(22-25-14-10-9-11-15-25)30(45)24-44(43-34(47)32(38(4,5)6)42-36(49)51-8)23-26-17-19-27(20-18-26)28-16-12-13-21-39-28/h9-21,29-32,45H,22-24H2,1-8H3,(H,40,46)(H,41,48)(H,42,49)(H,43,47)/t29-,30-,31+,32+/m0/s1

> <INCHI_KEY>
InChIKey=AXRYRYVKAWYZBR-GASGPIRDSA-N

> <SMILES>
COC(=O)N[C@H](C(=O)N[C@@H](CC1=CC=CC=C1)[C@@H](O)CN(CC1=CC=C(C=C1)C1=CC=CC=N1)NC(=O)[C@@H](NC(=O)OC)C(C)(C)C)C(C)(C)C

> <JCHEM_ACCEPTOR_COUNT>
7

> <JCHEM_DONOR_COUNT>
5

> <JCHEM_ACIDIC_PKA>
11.92

> <JCHEM_BASIC_PKA>
4.42

> <JCHEM_PHYSIOLOGICAL_CHARGE>
0

> <ALOGPS_LOGP>
4.08

> <JCHEM_LOGP>
4.54

> <ALOGPS_LOGS>
-5.3

> <JCHEM_POLARIZABILITY>
76.83

> <JCHEM_POLAR_SURFACE_AREA>
171.22

> <JCHEM_REFRACTIVITY>
191.8

> <JCHEM_ROTATABLE_BOND_COUNT>
18

> <ALOGPS_SOLUBILITY>
3.27e-03 g/l __ 

$$$$
