
  Mrv0541 04191212162D          

 26 27  0  0  0  0            999 V2000
    7.2023  -23.5153    0.0000 C   0  0  0  0  0  0  0  0  0  0  0  0
    6.4877  -23.1028    0.0000 C   0  0  0  0  0  0  0  0  0  0  0  0
   12.2036  -20.6279    0.0000 C   0  0  0  0  0  0  0  0  0  0  0  0
    9.3457  -23.1029    0.0000 N   0  0  0  0  0  0  0  0  0  0  0  0
    9.3457  -22.2779    0.0000 N   0  0  0  0  0  0  0  0  0  0  0  0
    7.2023  -24.3404    0.0000 C   0  0  0  0  0  0  0  0  0  0  0  0
   15.0615  -20.6279    0.0000 C   0  0  0  0  0  0  0  0  0  0  0  0
    7.9167  -23.1028    0.0000 C   0  0  0  0  0  0  0  0  0  0  0  0
   11.4891  -21.0404    0.0000 C   0  0  0  0  0  0  0  0  0  0  0  0
   14.3471  -21.0404    0.0000 C   0  0  0  0  0  0  0  0  0  0  0  0
    6.4877  -22.2778    0.0000 O   0  0  0  0  0  0  0  0  0  0  0  0
   12.2036  -19.8028    0.0000 O   0  0  0  0  0  0  0  0  0  0  0  0
    8.6312  -23.5154    0.0000 C   0  0  0  0  0  0  0  0  0  0  0  0
   15.7760  -21.0403    0.0000 O   0  0  0  0  0  0  0  0  0  0  0  0
   12.9181  -21.0404    0.0000 N   0  0  0  0  0  0  0  0  0  0  0  0
    7.9167  -24.7529    0.0000 C   0  0  0  0  0  0  0  0  0  0  0  0
   11.4891  -21.8654    0.0000 C   0  0  0  0  0  0  0  0  0  0  0  0
   10.7747  -20.6279    0.0000 C   0  0  0  0  0  0  0  0  0  0  0  0
   10.0602  -21.8654    0.0000 C   0  0  0  0  0  0  0  0  0  0  0  0
    5.7732  -23.5153    0.0000 O   0  0  0  0  0  0  0  0  0  0  0  0
   13.6325  -20.6279    0.0000 C   0  0  0  0  0  0  0  0  0  0  0  0
   15.0615  -19.8028    0.0000 O   0  0  0  0  0  0  0  0  0  0  0  0
    8.6312  -24.3404    0.0000 C   0  0  0  0  0  0  0  0  0  0  0  0
   10.0602  -21.0404    0.0000 C   0  0  0  0  0  0  0  0  0  0  0  0
   10.7747  -22.2779    0.0000 C   0  0  0  0  0  0  0  0  0  0  0  0
    6.4877  -24.7529    0.0000 O   0  0  0  0  0  0  0  0  0  0  0  0
  2  1  1  0  0  0  0
  3  9  1  0  0  0  0
  4 13  1  0  0  0  0
  5  4  2  0  0  0  0
  6  1  1  0  0  0  0
  7 10  1  0  0  0  0
  8  1  2  0  0  0  0
  9 17  2  0  0  0  0
 10 21  1  0  0  0  0
 11  2  2  0  0  0  0
 12  3  2  0  0  0  0
 13  8  1  0  0  0  0
 14  7  1  0  0  0  0
 15  3  1  0  0  0  0
 16  6  2  0  0  0  0
 17 25  1  0  0  0  0
 18 24  2  0  0  0  0
 19  5  1  0  0  0  0
 20  2  1  0  0  0  0
 21 15  1  0  0  0  0
 22  7  2  0  0  0  0
 23 13  2  0  0  0  0
 24 19  1  0  0  0  0
 25 19  2  0  0  0  0
 26  6  1  0  0  0  0
 16 23  1  0  0  0  0
 18  9  1  0  0  0  0
M  END
> <DRUGBANK_ID>
DB01014

> <DRUG_GROUPS>
approved; investigational

> <GENERIC_NAME>
Balsalazide

> <SYNONYMS>
Balsalazida; Balsalazido; Balsalazidum

> <SALTS>
Balsalazide disodium

> <BRANDS>
Colazal; Colazide

> <CHEMICAL_FORMULA>
C17H15N3O6

> <MOLECULAR_WEIGHT>
357.3175

> <EXACT_MASS>
357.096085227

> <IUPAC_NAME>
5-[(E)-2-{4-[(2-carboxyethyl)carbamoyl]phenyl}diazen-1-yl]-2-hydroxybenzoic acid

> <IUPAC_TRADITIONAL_NAME>
balsalazide

> <INCHI_IDENTIFIER>
InChI=1S/C17H15N3O6/c21-14-6-5-12(9-13(14)17(25)26)20-19-11-3-1-10(2-4-11)16(24)18-8-7-15(22)23/h1-6,9,21H,7-8H2,(H,18,24)(H,22,23)(H,25,26)/b20-19+

> <INCHI_KEY>
InChIKey=IPOKCKJONYRRHP-FMQUCBEESA-N

> <SMILES>
OC(=O)CCNC(=O)C1=CC=C(C=C1)\N=N\C1=CC=C(O)C(=C1)C(O)=O

> <JCHEM_ACCEPTOR_COUNT>
8

> <JCHEM_DONOR_COUNT>
4

> <JCHEM_ACIDIC_PKA>
3.06

> <JCHEM_BASIC_PKA>
-0.033

> <JCHEM_PHYSIOLOGICAL_CHARGE>
-2

> <ALOGPS_LOGP>
3.37

> <JCHEM_LOGP>
3.17

> <ALOGPS_LOGS>
-3.8

> <JCHEM_POLARIZABILITY>
35.98

> <JCHEM_POLAR_SURFACE_AREA>
148.65

> <JCHEM_REFRACTIVITY>
94.37

> <JCHEM_ROTATABLE_BOND_COUNT>
7

> <ALOGPS_SOLUBILITY>
6.21e-02 g/l __ 

$$$$
