
  Mrv0541 04191212162D          

 19 19  0  0  1  0            999 V2000
   12.3674  -12.5312    0.0000 C    0  0  0  0  0  0  0  0  0  0  0  0
   11.6542  -12.9393    0.0000 N    0  0  0  0  0  0  0  0  0  0  0  0
   13.0805  -12.9393    0.0000 C    0  0  0  0  0  0  0  0  0  0  0  0
   12.3674  -11.7050    0.0000 C    0  0  0  0  0  0  0  0  0  0  0  0
   11.6542  -13.7656    0.0000 C    0  0  0  0  0  0  0  0  0  0  0  0
   10.9376  -12.5312    0.0000 C    0  0  0  0  0  0  0  0  0  0  0  0
   13.7972  -12.5312    0.0000 C    0  0  0  0  0  0  0  0  0  0  0  0
   13.0805  -11.2901    0.0000 C    0  0  0  0  0  0  0  0  0  0  0  0
   13.7937  -11.7118    0.0000 C    0  0  0  0  0  0  0  0  0  0  0  0
   14.5069  -11.2970    0.0000 C    0  0  0  0  0  0  0  0  0  0  0  0
   15.2200  -11.7118    0.0000 C    0  0  1  0  0  0  0  0  0  0  0  0
   15.9366  -11.2970    0.0000 C    0  0  0  0  0  0  0  0  0  0  0  0
   15.2200  -12.5347    0.0000 N    0  0  0  0  0  0  0  0  0  0  0  0
   16.6463  -11.7118    0.0000 O    0  0  0  0  0  0  0  0  0  0  0  0
   15.9366  -10.4706    0.0000 O    0  0  0  0  0  0  0  0  0  0  0  0
   10.9357  -11.7216    0.0000 C    0  0  0  0  0  0  0  0  0  0  0  0
   10.2137  -11.3068    0.0000 Cl   0  0  0  0  0  0  0  0  0  0  0  0
   12.3791  -14.1839    0.0000 C    0  0  0  0  0  0  0  0  0  0  0  0
   12.3793  -15.0110    0.0000 Cl   0  0  0  0  0  0  0  0  0  0  0  0
  1  2  1  0  0  0  0
  1  3  2  0  0  0  0
  1  4  1  0  0  0  0
  2  5  1  0  0  0  0
  2  6  1  0  0  0  0
  3  7  1  0  0  0  0
  4  8  2  0  0  0  0
  7  9  2  0  0  0  0
  9 10  1  0  0  0  0
 10 11  1  0  0  0  0
 11 12  1  0  0  0  0
 11 13  1  1  0  0  0
 12 14  1  0  0  0  0
 12 15  2  0  0  0  0
  8  9  1  0  0  0  0
  6 16  1  0  0  0  0
 16 17  1  0  0  0  0
  5 18  1  0  0  0  0
 18 19  1  0  0  0  0
M  END
> <DRUGBANK_ID>
DB01042

> <DRUG_GROUPS>
approved

> <GENERIC_NAME>
Melphalan

> <SYNONYMS>
L-PAM; L-Phenylalanine mustard; L-Sarcolysine; p-Bis(beta-chloroethyl)aminophenylalanine; p-N,N-bis(2-chloroethyl)amino-L-phenylalanine; Phenylalanine mustard; Phenylalanine nitrogen mustard

> <SALTS>
Melphalan hydrochloride

> <BRANDS>
Alkeran

> <CHEMICAL_FORMULA>
C13H18Cl2N2O2

> <MOLECULAR_WEIGHT>
305.2

> <EXACT_MASS>
304.074533244

> <IUPAC_NAME>
(2S)-2-amino-3-{4-[bis(2-chloroethyl)amino]phenyl}propanoic acid

> <IUPAC_TRADITIONAL_NAME>
melphalan

> <INCHI_IDENTIFIER>
InChI=1S/C13H18Cl2N2O2/c14-5-7-17(8-6-15)11-3-1-10(2-4-11)9-12(16)13(18)19/h1-4,12H,5-9,16H2,(H,18,19)/t12-/m0/s1

> <INCHI_KEY>
InChIKey=SGDBTWWWUNNDEQ-LBPRGKRZSA-N

> <SMILES>
N[C@@H](CC1=CC=C(C=C1)N(CCCl)CCCl)C(O)=O

> <JCHEM_ACCEPTOR_COUNT>
4

> <JCHEM_DONOR_COUNT>
2

> <JCHEM_ACIDIC_PKA>
1.29

> <JCHEM_BASIC_PKA>
9.51

> <JCHEM_PHYSIOLOGICAL_CHARGE>
0

> <ALOGPS_LOGP>
-0.22

> <JCHEM_LOGP>
0.25

> <ALOGPS_LOGS>
-2.9

> <JCHEM_POLARIZABILITY>
31.38

> <JCHEM_POLAR_SURFACE_AREA>
66.56

> <JCHEM_REFRACTIVITY>
78.23

> <JCHEM_ROTATABLE_BOND_COUNT>
8

> <ALOGPS_SOLUBILITY>
3.58e-01 g/l __ 

$$$$
