
  Mrv0541 02231215402D          

 34 36  0  0  1  0            999 V2000
   -4.0540   -4.7792    0.0000 O   0  0  0  0  0  0  0  0  0  0  0  0
   -3.3396   -5.1917    0.0000 C   0  0  1  0  0  0  0  0  0  0  0  0
   -2.6251   -4.7792    0.0000 C   0  0  0  0  0  0  0  0  0  0  0  0
   -1.9106   -5.1917    0.0000 O   0  0  0  0  0  0  0  0  0  0  0  0
   -1.9106   -6.0167    0.0000 C   0  0  1  0  0  0  0  0  0  0  0  0
   -1.1962   -6.4292    0.0000 O   0  0  0  0  0  0  0  0  0  0  0  0
   -0.4817   -6.0167    0.0000 P   0  0  2  0  0  0  0  0  0  0  0  0
   -0.0692   -6.7312    0.0000 O   0  0  0  0  0  0  0  0  0  0  0  0
   -0.8942   -5.3022    0.0000 O   0  0  0  0  0  0  0  0  0  0  0  0
    0.2328   -5.6042    0.0000 O   0  0  0  0  0  0  0  0  0  0  0  0
    0.9473   -6.0167    0.0000 P   0  0  1  0  0  0  0  0  0  0  0  0
    0.5348   -6.7312    0.0000 O   0  0  0  0  0  0  0  0  0  0  0  0
    1.3598   -5.3022    0.0000 O   0  0  0  0  0  0  0  0  0  0  0  0
    1.6617   -6.4292    0.0000 O   0  0  0  0  0  0  0  0  0  0  0  0
    2.3762   -6.0167    0.0000 C   0  0  0  0  0  0  0  0  0  0  0  0
    3.0907   -6.4292    0.0000 C   0  0  2  0  0  0  0  0  0  0  0  0
    3.8443   -6.0937    0.0000 O   0  0  0  0  0  0  0  0  0  0  0  0
    4.3964   -6.7067    0.0000 C   0  0  2  0  0  0  0  0  0  0  0  0
    3.9839   -7.4212    0.0000 C   0  0  2  0  0  0  0  0  0  0  0  0
    4.3194   -8.1749    0.0000 O   0  0  0  0  0  0  0  0  0  0  0  0
    3.1769   -7.2497    0.0000 C   0  0  1  0  0  0  0  0  0  0  0  0
    2.5638   -7.8017    0.0000 O   0  0  0  0  0  0  0  0  0  0  0  0
    5.2169   -6.6205    0.0000 N   0  0  0  0  0  0  0  0  0  0  0  0
    5.5524   -5.8668    0.0000 C   0  0  0  0  0  0  0  0  0  0  0  0
    6.3729   -5.7806    0.0000 C   0  0  0  0  0  0  0  0  0  0  0  0
    6.8578   -6.4480    0.0000 C   0  0  0  0  0  0  0  0  0  0  0  0
    7.6783   -6.3618    0.0000 O   0  0  0  0  0  0  0  0  0  0  0  0
    6.5223   -7.2017    0.0000 N   0  0  0  0  0  0  0  0  0  0  0  0
    5.7018   -7.2880    0.0000 C   0  0  0  0  0  0  0  0  0  0  0  0
    5.3662   -8.0416    0.0000 O   0  0  0  0  0  0  0  0  0  0  0  0
   -2.6251   -6.4292    0.0000 C   0  0  2  0  0  0  0  0  0  0  0  0
   -2.6251   -7.2542    0.0000 O   0  0  0  0  0  0  0  0  0  0  0  0
   -3.3396   -6.0167    0.0000 C   0  0  1  0  0  0  0  0  0  0  0  0
   -4.0540   -6.4292    0.0000 O   0  0  0  0  0  0  0  0  0  0  0  0
  2  1  1  1  0  0  0
  2  3  1  0  0  0  0
  3  4  1  0  0  0  0
  4  5  1  0  0  0  0
  5  6  1  1  0  0  0
  7  6  1  6  0  0  0
  7  8  1  1  0  0  0
  7  9  2  0  0  0  0
  7 10  1  0  0  0  0
 11 10  1  1  0  0  0
 11 12  1  6  0  0  0
 11 13  2  0  0  0  0
 11 14  1  0  0  0  0
 14 15  1  0  0  0  0
 16 15  1  6  0  0  0
 16 17  1  0  0  0  0
 17 18  1  0  0  0  0
 18 19  1  0  0  0  0
 19 20  1  6  0  0  0
 19 21  1  0  0  0  0
 16 21  1  0  0  0  0
 21 22  1  1  0  0  0
 18 23  1  1  0  0  0
 23 24  1  0  0  0  0
 24 25  2  0  0  0  0
 25 26  1  0  0  0  0
 26 27  2  0  0  0  0
 26 28  1  0  0  0  0
 28 29  1  0  0  0  0
 23 29  1  0  0  0  0
 29 30  2  0  0  0  0
  5 31  1  0  0  0  0
 31 32  1  6  0  0  0
 31 33  1  0  0  0  0
  2 33  1  0  0  0  0
 33 34  1  1  0  0  0
M  END
> <DRUGBANK_ID>
DB01713

> <DRUG_GROUPS>
experimental

> <GENERIC_NAME>
Udp-Alpha-D-Xylopyranose

> <CHEMICAL_FORMULA>
C14H22N2O16P2

> <MOLECULAR_WEIGHT>
536.2758

> <EXACT_MASS>
536.04445569

> <IUPAC_NAME>
[({[(2S,3R,4R,5R)-5-(2,4-dioxo-1,2,3,4-tetrahydropyrimidin-1-yl)-3,4-dihydroxyoxolan-2-yl]methoxy}(hydroxy)phosphoryl)oxy]({[(2S,3R,4S,5S)-3,4,5-trihydroxyoxan-2-yl]oxy})phosphinic acid

> <IUPAC_TRADITIONAL_NAME>
{[(2S,3R,4R,5R)-5-(2,4-dioxo-3H-pyrimidin-1-yl)-3,4-dihydroxyoxolan-2-yl]methoxy(hydroxy)phosphoryl}oxy[(2S,3R,4S,5S)-3,4,5-trihydroxyoxan-2-yl]oxyphosphinic acid

> <INCHI_IDENTIFIER>
InChI=1S/C14H22N2O16P2/c17-5-3-28-13(11(22)8(5)19)31-34(26,27)32-33(24,25)29-4-6-9(20)10(21)12(30-6)16-2-1-7(18)15-14(16)23/h1-2,5-6,8-13,17,19-22H,3-4H2,(H,24,25)(H,26,27)(H,15,18,23)/t5-,6-,8-,9-,10+,11+,12+,13-/m0/s1

> <INCHI_KEY>
InChIKey=DQQDLYVHOTZLOR-NNFAFSNNSA-N

> <SMILES>
O[C@H]1[C@H](CO[P@](O)(=O)O[P@@](O)(=O)O[C@@H]2OC[C@H](O)[C@H](O)[C@H]2O)O[C@H]([C@@H]1O)N1C=CC(=O)NC1=O

> <JCHEM_ACCEPTOR_COUNT>
13

> <JCHEM_DONOR_COUNT>
8

> <JCHEM_ACIDIC_PKA>
1.73

> <JCHEM_BASIC_PKA>
-3.5

> <JCHEM_PHYSIOLOGICAL_CHARGE>
-2

> <ALOGPS_LOGP>
-1.3

> <JCHEM_LOGP>
-4.4

> <ALOGPS_LOGS>
-1.6

> <JCHEM_POLARIZABILITY>
43.77

> <JCHEM_POLAR_SURFACE_AREA>
271.31

> <JCHEM_REFRACTIVITY>
100.49

> <JCHEM_ROTATABLE_BOND_COUNT>
8

> <ALOGPS_SOLUBILITY>
1.36e+01 g/l __ 

$$$$
