
  Mrv0541 02231215102D          

  5  4  0  0  0  0            999 V2000
    4.2363   -0.0495    0.0000 O   0  0  0  0  0  0  0  0  0  0  0  0
    2.8074   -0.8745    0.0000 O   0  0  0  0  0  0  0  0  0  0  0  0
    3.5219    0.3630    0.0000 N   0  0  0  0  0  0  0  0  0  0  0  0
    2.0929    0.3630    0.0000 N   0  0  0  0  0  0  0  0  0  0  0  0
    2.8074   -0.0495    0.0000 C   0  0  0  0  0  0  0  0  0  0  0  0
  1  3  1  0  0  0  0
  2  5  2  0  0  0  0
  3  5  1  0  0  0  0
  4  5  1  0  0  0  0
M  END
> <DRUGBANK_ID>
DB01005

> <DRUG_GROUPS>
approved

> <GENERIC_NAME>
Hydroxyurea

> <SYNONYMS>
Carbamohydroxamic Acid; Carbamohydroximic Acid; Carbamoyl Oxime; Carbamyl Hydroxamate; Hydroxycarbamide; N-Carbamoylhydroxylamine; N-Hydroxyurea

> <BRANDS>
Droxia; Hydrea; Litalir; Onco-Carbide

> <CHEMICAL_FORMULA>
CH4N2O2

> <MOLECULAR_WEIGHT>
76.0547

> <EXACT_MASS>
76.027277382

> <IUPAC_NAME>
hydroxyurea

> <IUPAC_TRADITIONAL_NAME>
hydroxyurea

> <INCHI_IDENTIFIER>
InChI=1S/CH4N2O2/c2-1(4)3-5/h5H,(H3,2,3,4)

> <INCHI_KEY>
InChIKey=VSNHCAURESNICA-UHFFFAOYSA-N

> <SMILES>
NC(=O)NO

> <JCHEM_ACCEPTOR_COUNT>
2

> <JCHEM_DONOR_COUNT>
3

> <JCHEM_ACIDIC_PKA>
10.14

> <JCHEM_BASIC_PKA>
-4.9

> <JCHEM_PHYSIOLOGICAL_CHARGE>
0

> <ALOGPS_LOGP>
-1.8

> <JCHEM_LOGP>
-1.4

> <ALOGPS_LOGS>
0.55

> <JCHEM_POLARIZABILITY>
5.94

> <JCHEM_POLAR_SURFACE_AREA>
75.35

> <JCHEM_REFRACTIVITY>
14.91

> <JCHEM_ROTATABLE_BOND_COUNT>
0

> <ALOGPS_SOLUBILITY>
2.69e+02 g/l __ 

$$$$
