
  Mrv0541 03091311122D          

 15 14  0  0  1  0            999 V2000
   16.4584   -4.2762    0.0000 N   0  0  0  0  0  0  0  0  0  0  0  0
   15.7441   -3.8637    0.0000 C   0  0  0  0  0  0  0  0  0  0  0  0
   15.0296   -4.2762    0.0000 C   0  0  0  0  0  0  0  0  0  0  0  0
   13.6007   -4.2762    0.0000 C   0  0  0  0  0  0  0  0  0  0  0  0
   14.3151   -3.8637    0.0000 C   0  0  0  0  0  0  0  0  0  0  0  0
   15.0296   -5.1012    0.0000 O   0  0  0  0  0  0  0  0  0  0  0  0
   15.7441   -3.0388    0.0000 O   0  0  0  0  0  0  0  0  0  0  0  0
   12.8862   -3.8637    0.0000 O   0  0  0  0  0  0  0  0  0  0  0  0
   17.1729   -3.8637    0.0000 C   0  0  0  0  0  0  0  0  0  0  0  0
   17.8874   -4.2762    0.0000 C   0  0  0  0  0  0  0  0  0  0  0  0
   18.6019   -3.8637    0.0000 C   0  0  0  0  0  0  0  0  0  0  0  0
   18.6019   -3.0388    0.0000 O   0  0  0  0  0  0  0  0  0  0  0  0
   19.3163   -4.2762    0.0000 O   0  0  0  0  0  0  0  0  0  0  0  0
   13.9026   -3.1493    0.0000 C   0  0  0  0  0  0  0  0  0  0  0  0
   14.7276   -3.1493    0.0000 C   0  0  0  0  0  0  0  0  0  0  0  0
  1  9  1  0  0  0  0
  2  1  1  0  0  0  0
  2  7  2  0  0  0  0
  3  2  1  0  0  0  0
  3  6  1  0  0  0  0
  4  8  1  0  0  0  0
  3  5  1  0  0  0  0
  5  4  1  0  0  0  0
  5 14  1  0  0  0  0
  5 15  1  0  0  0  0
  9 10  1  0  0  0  0
 10 11  1  0  0  0  0
 11 12  2  0  0  0  0
 11 13  1  0  0  0  0
M  END
> <DRUGBANK_ID>
DB01783

> <DRUG_GROUPS>
nutraceutical

> <GENERIC_NAME>
Pantothenic acid

> <SYNONYMS>
(+)-Pantothenic acid; D-pantothenic acid; Pantothenate; Vitamin B5

> <SALTS>
Calcium pantothenate

> <CHEMICAL_FORMULA>
C9H17NO5

> <MOLECULAR_WEIGHT>
219.235

> <EXACT_MASS>
219.110672659

> <IUPAC_NAME>
3-(2,4-dihydroxy-3,3-dimethylbutanamido)propanoic acid

> <IUPAC_TRADITIONAL_NAME>
pantothenic acid

> <INCHI_IDENTIFIER>
InChI=1S/C9H17NO5/c1-9(2,5-11)7(14)8(15)10-4-3-6(12)13/h7,11,14H,3-5H2,1-2H3,(H,10,15)(H,12,13)

> <INCHI_KEY>
InChIKey=GHOKWGTUZJEAQD-UHFFFAOYSA-N

> <SMILES>
CC(C)(CO)C(O)C(=O)NCCC(O)=O

> <JCHEM_ACCEPTOR_COUNT>
5

> <JCHEM_DONOR_COUNT>
4

> <JCHEM_ACIDIC_PKA>
4.35

> <JCHEM_BASIC_PKA>
-2.8

> <JCHEM_PHYSIOLOGICAL_CHARGE>
-1

> <ALOGPS_LOGP>
-1.1

> <JCHEM_LOGP>
-1.4

> <ALOGPS_LOGS>
-0.56

> <JCHEM_POLARIZABILITY>
21.92

> <JCHEM_POLAR_SURFACE_AREA>
106.86

> <JCHEM_REFRACTIVITY>
51.51

> <JCHEM_ROTATABLE_BOND_COUNT>
6

> <ALOGPS_SOLUBILITY>
6.05e+01 g/l __ 

$$$$
