
  Mrv0541 04191212172D          

 23 25  0  0  0  0            999 V2000
    9.7382   -9.8080    0.0000 C   0  0  0  0  0  0  0  0  0  0  0  0
   10.5632   -9.8080    0.0000 N   0  0  0  0  0  0  0  0  0  0  0  0
    9.4833   -9.0233    0.0000 N   0  0  0  0  0  0  0  0  0  0  0  0
    2.8276  -10.0852    0.0000 N   0  3  0  0  0  0  0  0  0  0  0  0
   10.8182   -9.0233    0.0000 C   0  0  0  0  0  0  0  0  0  0  0  0
    5.9661   -9.0655    0.0000 C   0  0  0  0  0  0  0  0  0  0  0  0
   10.1507   -8.5384    0.0000 C   0  0  0  0  0  0  0  0  0  0  0  0
    8.6987   -8.7684    0.0000 N   0  0  0  0  0  0  0  0  0  0  0  0
    6.6335   -9.5504    0.0000 O   0  0  0  0  0  0  0  0  0  0  0  0
    6.2210   -8.2808    0.0000 C   0  0  0  0  0  0  0  0  0  0  0  0
    7.3010   -9.0655    0.0000 C   0  0  0  0  0  0  0  0  0  0  0  0
    8.0856   -9.3204    0.0000 C   0  0  0  0  0  0  0  0  0  0  0  0
    3.6122   -9.8303    0.0000 C   0  0  0  0  0  0  0  0  0  0  0  0
    7.0460   -8.2808    0.0000 C   0  0  0  0  0  0  0  0  0  0  0  0
    2.2145   -9.5332    0.0000 O   0  5  0  0  0  0  0  0  0  0  0  0
    5.1814   -9.3204    0.0000 C   0  0  0  0  0  0  0  0  0  0  0  0
    2.6561  -10.8923    0.0000 O   0  0  0  0  0  0  0  0  0  0  0  0
    9.2533  -10.4754    0.0000 O   0  0  0  0  0  0  0  0  0  0  0  0
   11.6028   -8.7684    0.0000 O   0  0  0  0  0  0  0  0  0  0  0  0
    4.2253  -10.3824    0.0000 C   0  0  0  0  0  0  0  0  0  0  0  0
    3.7837   -9.0233    0.0000 C   0  0  0  0  0  0  0  0  0  0  0  0
    5.0099  -10.1274    0.0000 C   0  0  0  0  0  0  0  0  0  0  0  0
    4.5683   -8.7684    0.0000 C   0  0  0  0  0  0  0  0  0  0  0  0
  2  1  1  0  0  0  0
  3  1  1  0  0  0  0
 18  1  2  0  0  0  0
  5  2  1  0  0  0  0
  7  3  1  0  0  0  0
  8  3  1  4  0  0  0
 13  4  1  0  0  0  0
 15  4  1  0  0  0  0
 17  4  2  0  0  0  0
 19  5  2  0  0  0  0
  7  5  1  0  0  0  0
  9  6  1  0  0  0  0
 16  6  1  0  0  0  0
 10  6  2  0  0  0  0
 12  8  2  0  0  0  0
 11  9  1  0  0  0  0
 14 10  1  0  0  0  0
 12 11  1  0  0  0  0
 14 11  2  0  0  0  0
 21 13  2  0  0  0  0
 20 13  1  0  0  0  0
 22 16  1  0  0  0  0
 23 16  2  0  0  0  0
 22 20  2  0  0  0  0
 23 21  1  0  0  0  0
M  END
> <DRUGBANK_ID>
DB01219

> <DRUG_GROUPS>
approved

> <GENERIC_NAME>
Dantrolene

> <SYNONYMS>
Dantroleno; Dantrolenum

> <SALTS>
Dantrolene Sodium

> <BRANDS>


> <CHEMICAL_FORMULA>
C14H10N4O5

> <MOLECULAR_WEIGHT>
314.253

> <EXACT_MASS>
314.06511945

> <IUPAC_NAME>
1-({[5-(4-nitrophenyl)furan-2-yl]methylidene}amino)imidazolidine-2,4-dione

> <IUPAC_TRADITIONAL_NAME>
dantrolene

> <INCHI_IDENTIFIER>
InChI=1S/C14H10N4O5/c19-13-8-17(14(20)16-13)15-7-11-5-6-12(23-11)9-1-3-10(4-2-9)18(21)22/h1-7H,8H2,(H,16,19,20)/b15-7+

> <INCHI_KEY>
InChIKey=OZOMQRBLCMDCEG-VIZOYTHASA-N

> <SMILES>
[O-][N+](=O)C1=CC=C(C=C1)C1=CC=C(O1)C=NN1CC(=O)NC1=O

> <JCHEM_ACCEPTOR_COUNT>
5

> <JCHEM_DONOR_COUNT>
1

> <JCHEM_ACIDIC_PKA>
9.23

> <JCHEM_BASIC_PKA>
-1.4

> <JCHEM_PHYSIOLOGICAL_CHARGE>
0

> <ALOGPS_LOGP>
1.65

> <JCHEM_LOGP>
1.26

> <ALOGPS_LOGS>
-3.6

> <JCHEM_POLARIZABILITY>
29.98

> <JCHEM_POLAR_SURFACE_AREA>
120.73

> <JCHEM_REFRACTIVITY>
78.87

> <JCHEM_ROTATABLE_BOND_COUNT>
4

> <ALOGPS_SOLUBILITY>
8.05e-02 g/l __ 

$$$$
