1480
  Mrv0541 02231215312D          

 31 37  0  0  1  0            999 V2000
    4.3078   -2.2564    0.0000 O   0  0  0  0  0  0  0  0  0  0  0  0
    6.7073   -2.1150    0.0000 O   0  0  0  0  0  0  0  0  0  0  0  0
    5.9991   -2.6317    0.0000 O   0  0  0  0  0  0  0  0  0  0  0  0
    2.2396   -2.4278    0.0000 O   0  0  0  0  0  0  0  0  0  0  0  0
    5.1420    1.1703    0.0000 N   0  0  0  0  0  0  0  0  0  0  0  0
    4.7295   -0.9731    0.0000 C   0  0  0  0  0  0  0  0  0  0  0  0
    5.1420   -0.2587    0.0000 C   0  0  0  0  0  0  0  0  0  0  0  0
    5.1420   -1.6876    0.0000 C   0  0  0  0  0  0  0  0  0  0  0  0
    5.9670   -1.6876    0.0000 C   0  0  0  0  0  0  0  0  0  0  0  0
    4.7295    0.4559    0.0000 C   0  0  0  0  0  0  0  0  0  0  0  0
    5.7378   -0.6431    0.0000 C   0  0  0  0  0  0  0  0  0  0  0  0
    5.4262   -1.2664    0.0000 C   0  0  0  0  0  0  0  0  0  0  0  0
    4.3171   -0.2587    0.0000 C   0  0  0  0  0  0  0  0  0  0  0  0
    3.9045   -0.9731    0.0000 C   0  0  0  0  0  0  0  0  0  0  0  0
    5.9670   -0.2587    0.0000 C   0  0  0  0  0  0  0  0  0  0  0  0
    3.9045    0.4559    0.0000 C   0  0  0  0  0  0  0  0  0  0  0  0
    4.3078    1.3185    0.0000 C   0  0  0  0  0  0  0  0  0  0  0  0
    6.3796   -0.9731    0.0000 C   0  0  0  0  0  0  0  0  0  0  0  0
    3.4920   -0.2587    0.0000 C   0  0  0  0  0  0  0  0  0  0  0  0
    5.3186   -2.1145    0.0000 C   0  0  0  0  0  0  0  0  0  0  0  0
    3.4920   -1.6876    0.0000 C   0  0  0  0  0  0  0  0  0  0  0  0
    5.9170    1.5311    0.0000 C   0  0  0  0  0  0  0  0  0  0  0  0
    5.9921    2.3825    0.0000 C   0  0  0  0  0  0  0  0  0  0  0  0
    2.6670   -0.2587    0.0000 C   0  0  0  0  0  0  0  0  0  0  0  0
    2.6670   -1.6876    0.0000 C   0  0  0  0  0  0  0  0  0  0  0  0
    6.4829    3.0825    0.0000 C   0  0  0  0  0  0  0  0  0  0  0  0
    5.6313    3.1575    0.0000 C   0  0  0  0  0  0  0  0  0  0  0  0
    5.2109   -2.9624    0.0000 C   0  0  0  0  0  0  0  0  0  0  0  0
    4.5585   -1.7232    0.0000 C   0  0  0  0  0  0  0  0  0  0  0  0
    2.2545   -0.9731    0.0000 C   0  0  0  0  0  0  0  0  0  0  0  0
    7.4476   -1.6876    0.0000 C   0  0  0  0  0  0  0  0  0  0  0  0
  1  8  1  0  0  0  0
  1 21  1  0  0  0  0
  2  9  1  0  0  0  0
  2 31  1  0  0  0  0
  3 20  1  0  0  0  0
  4 25  1  0  0  0  0
  5 10  1  0  0  0  0
  5 17  1  0  0  0  0
  5 22  1  0  0  0  0
  6  7  1  0  0  0  0
  6  8  1  0  0  0  0
  6 13  1  0  0  0  0
  6 14  1  0  0  0  0
  7 10  1  0  0  0  0
  7 11  1  0  0  0  0
  7 15  1  0  0  0  0
  8  9  1  0  0  0  0
  9 12  1  0  0  0  0
  9 18  1  0  0  0  0
 10 16  1  0  0  0  0
 11 12  1  0  0  0  0
 12 20  1  0  0  0  0
 13 17  1  0  0  0  0
 14 19  2  0  0  0  0
 14 21  1  0  0  0  0
 15 18  2  0  0  0  0
 16 19  1  0  0  0  0
 19 24  1  0  0  0  0
 20 28  1  0  0  0  0
 20 29  1  0  0  0  0
 21 25  2  0  0  0  0
 22 23  1  0  0  0  0
 23 26  1  0  0  0  0
 23 27  1  0  0  0  0
 24 30  2  0  0  0  0
 25 30  1  0  0  0  0
 26 27  1  0  0  0  0
M  END
> <DRUGBANK_ID>
DB01480

> <DRUG_GROUPS>
experimental; illicit

> <GENERIC_NAME>
Cyprenorphine

> <CHEMICAL_FORMULA>
C26H33NO4

> <MOLECULAR_WEIGHT>
423.5445

> <EXACT_MASS>
423.240958549

> <IUPAC_NAME>
3-(cyclopropylmethyl)-19-(2-hydroxypropan-2-yl)-15-methoxy-13-oxa-3-azahexacyclo[13.2.2.1^{2,8}.0^{1,6}.0^{6,14}.0^{7,12}]icosa-7,9,11,16-tetraen-11-ol

> <IUPAC_TRADITIONAL_NAME>
3-(cyclopropylmethyl)-19-(2-hydroxypropan-2-yl)-15-methoxy-13-oxa-3-azahexacyclo[13.2.2.1^{2,8}.0^{1,6}.0^{6,14}.0^{7,12}]icosa-7,9,11,16-tetraen-11-ol

> <INCHI_IDENTIFIER>
InChI=1S/C26H33NO4/c1-23(2,29)18-13-24-8-9-26(18,30-3)22-25(24)10-11-27(14-15-4-5-15)19(24)12-16-6-7-17(28)21(31-22)20(16)25/h6-9,15,18-19,22,28-29H,4-5,10-14H2,1-3H3

> <INCHI_KEY>
InChIKey=VSKIOMHXEUHYSI-UHFFFAOYSA-N

> <SMILES>
COC12C=CC3(CC1C(C)(C)O)C1CC4=C5C(OC2C35CCN1CC1CC1)=C(O)C=C4

> <JCHEM_ACCEPTOR_COUNT>
5

> <JCHEM_DONOR_COUNT>
2

> <JCHEM_ACIDIC_PKA>
7.49

> <JCHEM_BASIC_PKA>
12.4

> <JCHEM_PHYSIOLOGICAL_CHARGE>
1

> <ALOGPS_LOGP>
3.33

> <JCHEM_LOGP>
2.13

> <ALOGPS_LOGS>
-3.9

> <JCHEM_POLARIZABILITY>
46.93

> <JCHEM_POLAR_SURFACE_AREA>
62.16

> <JCHEM_REFRACTIVITY>
119.33

> <JCHEM_ROTATABLE_BOND_COUNT>
4

> <ALOGPS_SOLUBILITY>
5.82e-02 g/l __ 

$$$$
