
  Mrv0541 02231215512D          

 11 11  0  0  0  0            999 V2000
   -0.7145    3.7125    0.0000 O   0  0  0  0  0  0  0  0  0  0  0  0
    0.0000    3.3000    0.0000 B   0  0  0  0  0  0  0  0  0  0  0  0
    0.7145    3.7125    0.0000 O   0  0  0  0  0  0  0  0  0  0  0  0
    0.0000    2.4750    0.0000 C   0  0  0  0  0  0  0  0  0  0  0  0
    0.7145    2.0625    0.0000 C   0  0  0  0  0  0  0  0  0  0  0  0
    0.7145    1.2375    0.0000 C   0  0  0  0  0  0  0  0  0  0  0  0
    1.4289    0.8250    0.0000 C   0  0  0  0  0  0  0  0  0  0  0  0
    1.4289    0.0000    0.0000 C   0  0  0  0  0  0  0  0  0  0  0  0
    0.7145   -0.4125    0.0000 C   0  0  0  0  0  0  0  0  0  0  0  0
    0.0000    0.0000    0.0000 C   0  0  0  0  0  0  0  0  0  0  0  0
    0.0000    0.8250    0.0000 C   0  0  0  0  0  0  0  0  0  0  0  0
  1  2  1  0  0  0  0
  2  3  1  0  0  0  0
  2  4  1  0  0  0  0
  4  5  1  0  0  0  0
  5  6  1  0  0  0  0
  6  7  2  0  0  0  0
  7  8  1  0  0  0  0
  8  9  2  0  0  0  0
  9 10  1  0  0  0  0
 10 11  2  0  0  0  0
  6 11  1  0  0  0  0
M  END
> <DRUGBANK_ID>
DB01963

> <DRUG_GROUPS>
experimental

> <GENERIC_NAME>
Phenylethane Boronic Acid

> <CHEMICAL_FORMULA>
C8H11BO2

> <MOLECULAR_WEIGHT>
149.983

> <EXACT_MASS>
150.085210062

> <IUPAC_NAME>
(2-phenylethyl)boronic acid

> <IUPAC_TRADITIONAL_NAME>
2-phenylethylboronic acid

> <INCHI_IDENTIFIER>
InChI=1S/C8H11BO2/c10-9(11)7-6-8-4-2-1-3-5-8/h1-5,10-11H,6-7H2

> <INCHI_KEY>
InChIKey=VPRUMANMDWQMNF-UHFFFAOYSA-N

> <SMILES>
OB(O)CCC1=CC=CC=C1

> <JCHEM_ACCEPTOR_COUNT>
2

> <JCHEM_DONOR_COUNT>
2

> <JCHEM_PHYSIOLOGICAL_CHARGE>
0

> <ALOGPS_LOGP>
1.42

> <JCHEM_LOGP>
1.99

> <ALOGPS_LOGS>
-1.9

> <JCHEM_POLARIZABILITY>
16.91

> <JCHEM_POLAR_SURFACE_AREA>
40.46

> <JCHEM_REFRACTIVITY>
40.21

> <JCHEM_ROTATABLE_BOND_COUNT>
3

> <ALOGPS_SOLUBILITY>
1.82e+00 g/l __ 

$$$$
