
  Mrv0541 02231215132D          

 29 32  0  0  0  0            999 V2000
   -0.8484   -0.6703    0.0000 N   0  0  0  0  0  0  0  0  0  0  0  0
   -0.8484   -2.3203    0.0000 S   0  0  0  0  0  0  0  0  0  0  0  0
   -0.1340   -1.0828    0.0000 C   0  0  0  0  0  0  0  0  0  0  0  0
   -1.5629   -1.0828    0.0000 C   0  0  0  0  0  0  0  0  0  0  0  0
   -1.5629   -1.9078    0.0000 C   0  0  0  0  0  0  0  0  0  0  0  0
   -0.1340   -1.9078    0.0000 C   0  0  0  0  0  0  0  0  0  0  0  0
    0.5805   -0.6703    0.0000 C   0  0  0  0  0  0  0  0  0  0  0  0
   -2.2774   -0.6703    0.0000 C   0  0  0  0  0  0  0  0  0  0  0  0
   -2.2774   -2.3203    0.0000 C   0  0  0  0  0  0  0  0  0  0  0  0
    0.5805   -2.3203    0.0000 C   0  0  0  0  0  0  0  0  0  0  0  0
   -2.9918   -1.9078    0.0000 C   0  0  0  0  0  0  0  0  0  0  0  0
    1.2950   -1.9078    0.0000 C   0  0  0  0  0  0  0  0  0  0  0  0
   -0.8484    0.1547    0.0000 C   0  0  0  0  0  0  0  0  0  0  0  0
   -0.1340    0.5672    0.0000 C   0  0  0  0  0  0  0  0  0  0  0  0
   -0.1340    1.3922    0.0000 C   0  0  0  0  0  0  0  0  0  0  0  0
    0.5805    1.8047    0.0000 N   0  0  0  0  0  0  0  0  0  0  0  0
    2.0094    2.6297    0.0000 N   0  0  0  0  0  0  0  0  0  0  0  0
    2.0094    1.8047    0.0000 C   0  0  0  0  0  0  0  0  0  0  0  0
    0.5805    2.6297    0.0000 C   0  0  0  0  0  0  0  0  0  0  0  0
    1.2950    3.0422    0.0000 C   0  0  0  0  0  0  0  0  0  0  0  0
    1.2950    1.3922    0.0000 C   0  0  0  0  0  0  0  0  0  0  0  0
    2.7239    3.0422    0.0000 C   0  0  0  0  0  0  0  0  0  0  0  0
    3.4384    2.6297    0.0000 C   0  0  0  0  0  0  0  0  0  0  0  0
    4.1529    3.0422    0.0000 O   0  0  0  0  0  0  0  0  0  0  0  0
   -2.9918   -1.0828    0.0000 C   0  0  0  0  0  0  0  0  0  0  0  0
    1.2950   -1.0828    0.0000 C   0  0  0  0  0  0  0  0  0  0  0  0
    2.7239   -1.0828    0.0000 C   0  0  0  0  0  0  0  0  0  0  0  0
    2.0094   -0.6703    0.0000 C   0  0  0  0  0  0  0  0  0  0  0  0
    2.0094    0.1547    0.0000 O   0  0  0  0  0  0  0  0  0  0  0  0
  3  1  1  0  0  0  0
  4  1  1  0  0  0  0
 13  1  1  0  0  0  0
  5  2  1  0  0  0  0
  6  2  1  0  0  0  0
  6  3  1  0  0  0  0
  7  3  2  0  0  0  0
  5  4  2  0  0  0  0
  8  4  1  0  0  0  0
  9  5  1  0  0  0  0
 10  6  2  0  0  0  0
 26  7  1  0  0  0  0
 25  8  2  0  0  0  0
 11  9  2  0  0  0  0
 12 10  1  0  0  0  0
 12 26  2  0  0  0  0
 25 11  1  0  0  0  0
 14 13  1  0  0  0  0
 15 14  1  0  0  0  0
 16 15  1  0  0  0  0
 19 16  1  0  0  0  0
 21 16  1  0  0  0  0
 18 17  1  0  0  0  0
 20 17  1  0  0  0  0
 22 17  1  0  0  0  0
 21 18  1  0  0  0  0
 20 19  1  0  0  0  0
 23 22  1  0  0  0  0
 24 23  1  0  0  0  0
 26 28  1  0  0  0  0
 28 27  1  0  0  0  0
 28 29  2  0  0  0  0
M  END
> <DRUGBANK_ID>
DB01063

> <DRUG_GROUPS>
approved

> <GENERIC_NAME>
Acetophenazine

> <BRANDS>


> <CHEMICAL_FORMULA>
C23H29N3O2S

> <MOLECULAR_WEIGHT>
411.56

> <EXACT_MASS>
411.198047877

> <IUPAC_NAME>
1-(10-{3-[4-(2-hydroxyethyl)piperazin-1-yl]propyl}-10H-phenothiazin-2-yl)ethan-1-one

> <IUPAC_TRADITIONAL_NAME>
acetophenazine

> <INCHI_IDENTIFIER>
InChI=1S/C23H29N3O2S/c1-18(28)19-7-8-23-21(17-19)26(20-5-2-3-6-22(20)29-23)10-4-9-24-11-13-25(14-12-24)15-16-27/h2-3,5-8,17,27H,4,9-16H2,1H3

> <INCHI_KEY>
InChIKey=WNTYBHLDCKXEOT-UHFFFAOYSA-N

> <SMILES>
CC(=O)C1=CC=C2SC3=C(C=CC=C3)N(CCCN3CCN(CCO)CC3)C2=C1

> <JCHEM_ACCEPTOR_COUNT>
5

> <JCHEM_DONOR_COUNT>
1

> <JCHEM_ACIDIC_PKA>
15.46

> <JCHEM_BASIC_PKA>
8.07

> <JCHEM_PHYSIOLOGICAL_CHARGE>
1

> <ALOGPS_LOGP>
3.48

> <JCHEM_LOGP>
2.65

> <ALOGPS_LOGS>
-3.8

> <JCHEM_POLARIZABILITY>
46.68

> <JCHEM_POLAR_SURFACE_AREA>
47.02

> <JCHEM_REFRACTIVITY>
121.7

> <JCHEM_ROTATABLE_BOND_COUNT>
7

> <ALOGPS_SOLUBILITY>
6.01e-02 g/l __ 

$$$$
