
  Mrv0541 02231215392D          

 12 13  0  0  0  0            999 V2000
    4.0668    2.3479    0.0000 O   0  0  0  0  0  0  0  0  0  0  0  0
    3.3523    1.9354    0.0000 C   0  0  0  0  0  0  0  0  0  0  0  0
    3.3523    1.1104    0.0000 N   0  0  0  0  0  0  0  0  0  0  0  0
    2.6378    0.6979    0.0000 C   0  0  0  0  0  0  0  0  0  0  0  0
    2.6378   -0.1271    0.0000 O   0  0  0  0  0  0  0  0  0  0  0  0
    1.9233    1.1104    0.0000 C   0  0  0  0  0  0  0  0  0  0  0  0
    1.9233    1.9354    0.0000 C   0  0  0  0  0  0  0  0  0  0  0  0
    2.6378    2.3479    0.0000 N   0  0  0  0  0  0  0  0  0  0  0  0
    1.1387    2.1904    0.0000 N   0  0  0  0  0  0  0  0  0  0  0  0
    0.6538    1.5229    0.0000 C   0  0  0  0  0  0  0  0  0  0  0  0
   -0.1712    1.5229    0.0000 O   0  0  0  0  0  0  0  0  0  0  0  0
    1.1387    0.8555    0.0000 N   0  0  0  0  0  0  0  0  0  0  0  0
  1  2  2  0  0  0  0
  2  3  1  0  0  0  0
  3  4  1  0  0  0  0
  4  5  2  0  0  0  0
  4  6  1  0  0  0  0
  6  7  2  0  0  0  0
  7  8  1  0  0  0  0
  2  8  1  0  0  0  0
  7  9  1  0  0  0  0
  9 10  1  0  0  0  0
 10 11  2  0  0  0  0
 10 12  1  0  0  0  0
  6 12  1  0  0  0  0
M  END
> <DRUGBANK_ID>
DB01696

> <DRUG_GROUPS>
experimental

> <GENERIC_NAME>
7,9-Dihydro-1h-Purine-2,6,8(3h)-Trione

> <CHEMICAL_FORMULA>
C5H4N4O3

> <MOLECULAR_WEIGHT>
168.1103

> <EXACT_MASS>
168.028340014

> <IUPAC_NAME>
2,3,6,7,8,9-hexahydro-1H-purine-2,6,8-trione

> <IUPAC_TRADITIONAL_NAME>
uric acid

> <INCHI_IDENTIFIER>
InChI=1S/C5H4N4O3/c10-3-1-2(7-4(11)6-1)8-5(12)9-3/h(H4,6,7,8,9,10,11,12)

> <INCHI_KEY>
InChIKey=LEHOTFFKMJEONL-UHFFFAOYSA-N

> <SMILES>
O=C1NC2=C(N1)C(=O)NC(=O)N2

> <JCHEM_ACCEPTOR_COUNT>
3

> <JCHEM_DONOR_COUNT>
4

> <JCHEM_ACIDIC_PKA>
7.61

> <JCHEM_BASIC_PKA>
-6.5

> <JCHEM_PHYSIOLOGICAL_CHARGE>
0

> <ALOGPS_LOGP>
-1.1

> <JCHEM_LOGP>
-1.5

> <ALOGPS_LOGS>
-2

> <JCHEM_POLARIZABILITY>
13.61

> <JCHEM_POLAR_SURFACE_AREA>
99.33

> <JCHEM_REFRACTIVITY>
45.63

> <JCHEM_ROTATABLE_BOND_COUNT>
0

> <ALOGPS_SOLUBILITY>
1.76e+00 g/l __ 

$$$$
