
  Mrv0541 02231215442D          

 54 60  0  0  1  0            999 V2000
    6.8104    0.9185    0.0000 C   0  0  0  0  0  0  0  0  0  0  0  0
    6.5282    0.1433    0.0000 C   0  0  0  0  0  0  0  0  0  0  0  0
    5.7158    0.0000    0.0000 C   0  0  1  0  0  0  0  0  0  0  0  0
    5.9979   -0.7752    0.0000 O   0  0  0  0  0  0  0  0  0  0  0  0
    5.7158    0.8250    0.0000 C   0  0  0  0  0  0  0  0  0  0  0  0
    5.0013    1.2375    0.0000 C   0  0  2  0  0  0  0  0  0  0  0  0
    5.0013    2.0625    0.0000 O   0  0  0  0  0  0  0  0  0  0  0  0
    5.7158    2.4750    0.0000 C   0  0  1  0  0  0  0  0  0  0  0  0
    5.7158    3.3000    0.0000 C   0  0  0  0  0  0  0  0  0  0  0  0
    6.4302    3.7125    0.0000 C   0  0  2  0  0  0  0  0  0  0  0  0
    7.1447    3.3000    0.0000 C   0  0  2  0  0  0  0  0  0  0  0  0
    7.8592    3.7125    0.0000 O   0  0  0  0  0  0  0  0  0  0  0  0
    8.5737    3.3000    0.0000 C   0  0  1  0  0  0  0  0  0  0  0  0
    9.2881    3.7125    0.0000 C   0  0  0  0  0  0  0  0  0  0  0  0
   10.0026    3.3000    0.0000 C   0  0  1  0  0  0  0  0  0  0  0  0
   10.7171    3.7125    0.0000 O   0  0  0  0  0  0  0  0  0  0  0  0
   10.0026    2.4750    0.0000 C   0  0  1  0  0  0  0  0  0  0  0  0
   10.7171    2.0625    0.0000 O   0  0  0  0  0  0  0  0  0  0  0  0
   10.7171    1.2375    0.0000 C   0  0  1  0  0  0  0  0  0  0  0  0
   11.4315    0.8250    0.0000 C   0  0  0  0  0  0  0  0  0  0  0  0
   11.4315    0.0000    0.0000 C   0  0  0  0  0  0  0  0  0  0  0  0
   10.7171   -0.4125    0.0000 C   0  0  0  0  0  0  0  0  0  0  0  0
   10.7171   -1.2375    0.0000 O   0  0  0  0  0  0  0  0  0  0  0  0
   10.0026    0.0000    0.0000 C   0  0  2  0  0  0  0  0  0  0  0  0
    9.2881   -0.4125    0.0000 C   0  0  0  0  0  0  0  0  0  0  0  0
   10.0026    0.8250    0.0000 O   0  0  0  0  0  0  0  0  0  0  0  0
    9.2881    2.0625    0.0000 C   0  0  1  0  0  0  0  0  0  0  0  0
    9.2881    1.2375    0.0000 C   0  0  0  0  0  0  0  0  0  0  0  0
    8.5737    2.4750    0.0000 O   0  0  0  0  0  0  0  0  0  0  0  0
    7.1447    2.4750    0.0000 C   0  0  1  0  0  0  0  0  0  0  0  0
    7.8592    2.0625    0.0000 C   0  0  0  0  0  0  0  0  0  0  0  0
    6.4302    2.0625    0.0000 O   0  0  0  0  0  0  0  0  0  0  0  0
    6.4302    4.5375    0.0000 N   0  0  0  0  0  0  0  0  0  0  0  0
    7.1447    4.9500    0.0000 C   0  0  0  0  0  0  0  0  0  0  0  0
    5.7158    4.9500    0.0000 C   0  0  0  0  0  0  0  0  0  0  0  0
    4.2868    0.8250    0.0000 C   0  0  0  0  0  0  0  0  0  0  0  0
    3.5724    1.2375    0.0000 C   0  0  0  0  0  0  0  0  0  0  0  0
    3.5724    2.0625    0.0000 O   0  0  0  0  0  0  0  0  0  0  0  0
    2.8579    0.8250    0.0000 C   0  0  0  0  0  0  0  0  0  0  0  0
    2.8579    0.0000    0.0000 C   0  0  0  0  0  0  0  0  0  0  0  0
    3.5724   -0.4125    0.0000 C   0  0  0  0  0  0  0  0  0  0  0  0
    4.2868    0.0000    0.0000 C   0  0  0  0  0  0  0  0  0  0  0  0
    5.0013   -0.4125    0.0000 C   0  0  0  0  0  0  0  0  0  0  0  0
    2.1434   -0.4125    0.0000 C   0  0  0  0  0  0  0  0  0  0  0  0
    2.1434   -1.2375    0.0000 O   0  0  0  0  0  0  0  0  0  0  0  0
    1.4289    0.0000    0.0000 C   0  0  0  0  0  0  0  0  0  0  0  0
    0.7145   -0.4125    0.0000 C   0  0  0  0  0  0  0  0  0  0  0  0
    0.0000    0.0000    0.0000 C   0  0  0  0  0  0  0  0  0  0  0  0
    0.0000    0.8250    0.0000 C   0  0  0  0  0  0  0  0  0  0  0  0
    0.7145    1.2375    0.0000 C   0  0  0  0  0  0  0  0  0  0  0  0
    0.7145    2.0625    0.0000 O   0  0  0  0  0  0  0  0  0  0  0  0
    1.4289    0.8250    0.0000 C   0  0  0  0  0  0  0  0  0  0  0  0
    2.1434    1.2375    0.0000 C   0  0  0  0  0  0  0  0  0  0  0  0
    2.1434    2.0625    0.0000 O   0  0  0  0  0  0  0  0  0  0  0  0
  1  2  1  0  0  0  0
  3  2  1  6  0  0  0
  3  4  1  1  0  0  0
  3  5  1  0  0  0  0
  5  6  1  0  0  0  0
  6  7  1  1  0  0  0
  8  7  1  1  0  0  0
  8  9  1  0  0  0  0
  9 10  1  0  0  0  0
 10 11  1  0  0  0  0
 11 12  1  6  0  0  0
 13 12  1  1  0  0  0
 13 14  1  0  0  0  0
 14 15  1  0  0  0  0
 15 16  1  1  0  0  0
 15 17  1  0  0  0  0
 17 18  1  1  0  0  0
 19 18  1  1  0  0  0
 19 20  1  0  0  0  0
 20 21  1  0  0  0  0
 21 22  1  0  0  0  0
 22 23  2  0  0  0  0
 22 24  1  0  0  0  0
 24 25  1  6  0  0  0
 24 26  1  0  0  0  0
 19 26  1  0  0  0  0
 17 27  1  0  0  0  0
 27 28  1  1  0  0  0
 27 29  1  0  0  0  0
 13 29  1  0  0  0  0
 11 30  1  0  0  0  0
 30 31  1  1  0  0  0
 30 32  1  0  0  0  0
  8 32  1  0  0  0  0
 10 33  1  1  0  0  0
 33 34  1  0  0  0  0
 33 35  1  0  0  0  0
  6 36  1  0  0  0  0
 36 37  2  0  0  0  0
 37 38  1  0  0  0  0
 37 39  1  0  0  0  0
 39 40  2  0  0  0  0
 40 41  1  0  0  0  0
 41 42  2  0  0  0  0
 36 42  1  0  0  0  0
 42 43  1  0  0  0  0
  3 43  1  0  0  0  0
 40 44  1  0  0  0  0
 44 45  2  0  0  0  0
 44 46  1  0  0  0  0
 46 47  2  0  0  0  0
 47 48  1  0  0  0  0
 48 49  2  0  0  0  0
 49 50  1  0  0  0  0
 50 51  1  0  0  0  0
 50 52  2  0  0  0  0
 46 52  1  0  0  0  0
 52 53  1  0  0  0  0
 39 53  1  0  0  0  0
 53 54  2  0  0  0  0
M  END
> <DRUGBANK_ID>
DB01806

> <DRUG_GROUPS>
experimental

> <GENERIC_NAME>
10-{4-Dimethylamino-5-[4-Hydroxy-6-Methyl-5-(6-Methyl-5-Oxo-Tetrahydro-Pyran-2-Yloxy)-Tetrahydro-Pyrane-2-Yloxy]-6-Methyl-Tetrahydro-Pyran-2-Yloxy}-8-Ethyl-1,8,11-Trihydroxy-7,8,9,10-Tetrahydro-Naphthacene-5,12-Dione

> <CHEMICAL_FORMULA>
C40H51NO13

> <MOLECULAR_WEIGHT>
753.8318

> <EXACT_MASS>
753.336040723

> <IUPAC_NAME>
(8S,10S)-10-{[(2R,4R,5S,6R)-4-(dimethylamino)-5-{[(2S,4R,5R,6R)-4-hydroxy-6-methyl-5-{[(2R,6S)-6-methyl-5-oxooxan-2-yl]oxy}oxan-2-yl]oxy}-6-methyloxan-2-yl]oxy}-8-ethyl-1,8,11-trihydroxy-5,7,8,9,10,12-hexahydrotetracene-5,12-dione

> <IUPAC_TRADITIONAL_NAME>
(8S,10S)-10-{[(2R,4R,5S,6R)-4-(dimethylamino)-5-{[(2S,4R,5R,6R)-4-hydroxy-6-methyl-5-{[(2R,6S)-6-methyl-5-oxooxan-2-yl]oxy}oxan-2-yl]oxy}-6-methyloxan-2-yl]oxy}-8-ethyl-1,8,11-trihydroxy-9,10-dihydro-7H-tetracene-5,12-dione

> <INCHI_IDENTIFIER>
InChI=1S/C40H51NO13/c1-7-40(48)16-21-13-23-34(37(47)33-22(35(23)45)9-8-10-26(33)43)36(46)32(21)28(17-40)52-30-14-24(41(5)6)38(19(3)50-30)54-31-15-27(44)39(20(4)51-31)53-29-12-11-25(42)18(2)49-29/h8-10,13,18-20,24,27-31,38-39,43-44,46,48H,7,11-12,14-17H2,1-6H3/t18-,19+,20+,24+,27+,28-,29-,30-,31-,38+,39-,40-/m0/s1

> <INCHI_KEY>
InChIKey=OXPCRXLITLBLEY-GJBXPKINSA-N

> <SMILES>
CC[C@@]1(O)C[C@H](O[C@H]2C[C@H]([C@H](O[C@H]3C[C@@H](O)[C@@H](O[C@H]4CCC(=O)[C@H](C)O4)[C@@H](C)O3)[C@@H](C)O2)N(C)C)C2=C(O)C3=C(C=C2C1)C(=O)C1=CC=CC(O)=C1C3=O

> <JCHEM_ACCEPTOR_COUNT>
14

> <JCHEM_DONOR_COUNT>
4

> <JCHEM_ACIDIC_PKA>
8.94

> <JCHEM_BASIC_PKA>
8.22

> <JCHEM_PHYSIOLOGICAL_CHARGE>
1

> <ALOGPS_LOGP>
2.94

> <JCHEM_LOGP>
4.99

> <ALOGPS_LOGS>
-3.8

> <JCHEM_POLARIZABILITY>
81.06

> <JCHEM_POLAR_SURFACE_AREA>
190.75

> <JCHEM_REFRACTIVITY>
193.01

> <JCHEM_ROTATABLE_BOND_COUNT>
8

> <ALOGPS_SOLUBILITY>
1.34e-01 g/l __ 

$$$$
