1344
  Mrv0541 02231215232D          

 14 14  0  0  0  0            999 V2000
    4.6490    2.9866    0.0000 S   0  0  0  0  0  0  0  0  0  0  0  0
    4.6490    3.8116    0.0000 O   0  5  0  0  0  0  0  0  0  0  0  0
    3.8240    2.9866    0.0000 O   0  0  0  0  0  0  0  0  0  0  0  0
    5.4740    2.9866    0.0000 O   0  0  0  0  0  0  0  0  0  0  0  0
    4.6490    2.1615    0.0000 C   0  0  0  0  0  0  0  0  0  0  0  0
    3.9345    1.7490    0.0000 C   0  0  0  0  0  0  0  0  0  0  0  0
    5.3634    1.7490    0.0000 C   0  0  0  0  0  0  0  0  0  0  0  0
    3.9345    0.9240    0.0000 C   0  0  0  0  0  0  0  0  0  0  0  0
    5.3634    0.9240    0.0000 C   0  0  0  0  0  0  0  0  0  0  0  0
    4.6490    0.5115    0.0000 C   0  0  0  0  0  0  0  0  0  0  0  0
    4.6490   -0.3135    0.0000 C   0  0  0  0  0  0  0  0  0  0  0  0
    3.3860   -0.8803    0.0000 *   0  0  0  0  0  0  0  0  0  0  0  0
    5.3635   -0.7260    0.0000 C   0  0  0  0  0  0  0  0  0  0  0  0
    6.1604   -0.5125    0.0000 *   0  0  0  0  0  0  0  0  0  0  0  0
  1  2  1  0  0  0  0
  1  3  2  0  0  0  0
  1  4  2  0  0  0  0
  1  5  1  0  0  0  0
  5  6  2  0  0  0  0
  5  7  1  0  0  0  0
  6  8  1  0  0  0  0
  7  9  2  0  0  0  0
  8 10  2  0  0  0  0
  9 10  1  0  0  0  0
 10 11  1  0  0  0  0
 11 12  1  0  0  0  0
 11 13  1  0  0  0  0
 13 14  1  0  0  0  0
M  END
> <DRUGBANK_ID>
DB01344

> <DRUG_GROUPS>
approved

> <GENERIC_NAME>
Polystyrene sulfonate

> <SALTS>
Calcium polystyrene sulfonate; Sodium polystyrene sulfonate

> <BRANDS>
Kayexalate; Kionex; Resonium A; Sorbisterit __ 

$$$$
