
  Mrv0541 02231215512D          

 17 17  0  0  1  0            999 V2000
    2.1434   -1.2375    0.0000 N   0  0  0  0  0  0  0  0  0  0  0  0
    1.4289   -1.6500    0.0000 C   0  0  1  0  0  0  0  0  0  0  0  0
    0.7145   -1.2375    0.0000 C   0  0  0  0  0  0  0  0  0  0  0  0
    0.7145   -0.4125    0.0000 C   0  0  0  0  0  0  0  0  0  0  0  0
    0.0000    0.0000    0.0000 C   0  0  0  0  0  0  0  0  0  0  0  0
    0.0000    0.8250    0.0000 C   0  0  0  0  0  0  0  0  0  0  0  0
    0.7145    1.2375    0.0000 C   0  0  0  0  0  0  0  0  0  0  0  0
    0.7145    2.0625    0.0000 O   0  0  0  0  0  0  0  0  0  0  0  0
    1.4289    2.4750    0.0000 P   0  0  0  0  0  0  0  0  0  0  0  0
    2.1434    2.8875    0.0000 O   0  0  0  0  0  0  0  0  0  0  0  0
    1.0164    3.1895    0.0000 O   0  0  0  0  0  0  0  0  0  0  0  0
    1.8414    1.7605    0.0000 O   0  0  0  0  0  0  0  0  0  0  0  0
    1.4289    0.8250    0.0000 C   0  0  0  0  0  0  0  0  0  0  0  0
    1.4289    0.0000    0.0000 C   0  0  0  0  0  0  0  0  0  0  0  0
    1.4289   -2.4750    0.0000 C   0  0  0  0  0  0  0  0  0  0  0  0
    2.1434   -2.8875    0.0000 O   0  0  0  0  0  0  0  0  0  0  0  0
    0.7145   -2.8875    0.0000 O   0  0  0  0  0  0  0  0  0  0  0  0
  2  1  1  6  0  0  0
  2  3  1  0  0  0  0
  3  4  1  0  0  0  0
  4  5  2  0  0  0  0
  5  6  1  0  0  0  0
  6  7  2  0  0  0  0
  7  8  1  0  0  0  0
  8  9  1  0  0  0  0
  9 10  1  0  0  0  0
  9 11  1  0  0  0  0
  9 12  2  0  0  0  0
  7 13  1  0  0  0  0
 13 14  2  0  0  0  0
  4 14  1  0  0  0  0
  2 15  1  0  0  0  0
 15 16  1  0  0  0  0
 15 17  2  0  0  0  0
M  END
> <DRUGBANK_ID>
DB01962

> <DRUG_GROUPS>
experimental

> <GENERIC_NAME>
Phosphonotyrosine

> <CHEMICAL_FORMULA>
C9H12NO6P

> <MOLECULAR_WEIGHT>
261.1684

> <EXACT_MASS>
261.040223633

> <IUPAC_NAME>
(2S)-2-amino-3-[4-(phosphonooxy)phenyl]propanoic acid

> <IUPAC_TRADITIONAL_NAME>
phosphonotyrosine

> <INCHI_IDENTIFIER>
InChI=1S/C9H12NO6P/c10-8(9(11)12)5-6-1-3-7(4-2-6)16-17(13,14)15/h1-4,8H,5,10H2,(H,11,12)(H2,13,14,15)/t8-/m0/s1

> <INCHI_KEY>
InChIKey=DCWXELXMIBXGTH-QMMMGPOBSA-N

> <SMILES>
N[C@@H](CC1=CC=C(OP(O)(O)=O)C=C1)C(O)=O

> <JCHEM_ACCEPTOR_COUNT>
6

> <JCHEM_DONOR_COUNT>
4

> <JCHEM_ACIDIC_PKA>
1.38

> <JCHEM_BASIC_PKA>
9.46

> <JCHEM_PHYSIOLOGICAL_CHARGE>
-2

> <ALOGPS_LOGP>
-0.76

> <JCHEM_LOGP>
-1.5

> <ALOGPS_LOGS>
-2.1

> <JCHEM_POLARIZABILITY>
22.7

> <JCHEM_POLAR_SURFACE_AREA>
130.08

> <JCHEM_REFRACTIVITY>
57.97

> <JCHEM_ROTATABLE_BOND_COUNT>
5

> <ALOGPS_SOLUBILITY>
1.93e+00 g/l __ 

$$$$
