1526
  Mrv0541 02231215322D          

 24 27  0  0  1  0            999 V2000
    7.5775    1.7429    0.0000 O   0  0  0  0  0  0  0  0  0  0  0  0
    2.0917   -1.8105    0.0000 O   0  0  0  0  0  0  0  0  0  0  0  0
    6.5406   -0.1176    0.0000 C   0  0  1  0  0  0  0  0  0  0  0  0
    5.8262   -0.5300    0.0000 C   0  0  1  0  0  0  0  0  0  0  0  0
    6.5406    0.7074    0.0000 C   0  0  2  0  0  0  0  0  0  0  0  0
    5.1119   -0.1176    0.0000 C   0  0  1  0  0  0  0  0  0  0  0  0
    4.3612   -0.5356    0.0000 C   0  0  2  0  0  0  0  0  0  0  0  0
    5.8262    1.1199    0.0000 C   0  0  0  0  0  0  0  0  0  0  0  0
    5.1119    0.7074    0.0000 C   0  0  0  0  0  0  0  0  0  0  0  0
    7.3211    0.9588    0.0000 C   0  0  2  0  0  0  0  0  0  0  0  0
    7.3211   -0.3689    0.0000 C   0  0  0  0  0  0  0  0  0  0  0  0
    5.8395   -1.3891    0.0000 C   0  0  0  0  0  0  0  0  0  0  0  0
    7.8026    0.2949    0.0000 C   0  0  0  0  0  0  0  0  0  0  0  0
    4.3545   -1.3948    0.0000 C   0  0  0  0  0  0  0  0  0  0  0  0
    5.0987   -1.8245    0.0000 C   0  0  0  0  0  0  0  0  0  0  0  0
    3.5966   -0.0703    0.0000 C   0  0  0  0  0  0  0  0  0  0  0  0
    6.5406    1.5323    0.0000 C   0  0  0  0  0  0  0  0  0  0  0  0
    4.3676    0.2893    0.0000 C   0  0  0  0  0  0  0  0  0  0  0  0
    2.8147   -0.5058    0.0000 C   0  0  0  0  0  0  0  0  0  0  0  0
    3.5829   -1.8483    0.0000 C   0  0  0  0  0  0  0  0  0  0  0  0
    2.8078   -1.4008    0.0000 C   0  0  1  0  0  0  0  0  0  0  0  0
    6.6105   -0.7738    0.0000 H   0  0  0  0  0  0  0  0  0  0  0  0
    6.4003   -0.8555    0.0000 H   0  0  0  0  0  0  0  0  0  0  0  0
    5.6833    0.2124    0.0000 H   0  0  0  0  0  0  0  0  0  0  0  0
 10  1  1  1  0  0  0
 21  2  1  1  0  0  0
  3  4  1  0  0  0  0
  3  5  1  0  0  0  0
  3 11  1  0  0  0  0
  3 22  1  6  0  0  0
  4  6  1  0  0  0  0
  4 12  1  0  0  0  0
  4 23  1  1  0  0  0
  5  8  1  0  0  0  0
  5 10  1  0  0  0  0
  5 17  1  1  0  0  0
  6  7  1  0  0  0  0
  6  9  1  0  0  0  0
  6 24  1  6  0  0  0
  7 14  1  0  0  0  0
  7 16  1  0  0  0  0
  7 18  1  1  0  0  0
  8  9  1  0  0  0  0
 10 13  1  0  0  0  0
 11 13  1  0  0  0  0
 12 15  1  0  0  0  0
 14 15  1  0  0  0  0
 14 20  2  0  0  0  0
 16 19  1  0  0  0  0
 19 21  1  0  0  0  0
 20 21  1  0  0  0  0
M  END
> <DRUGBANK_ID>
DB01526

> <DRUG_GROUPS>
experimental; illicit

> <GENERIC_NAME>
4-Androstenediol

> <CHEMICAL_FORMULA>
C19H30O2

> <MOLECULAR_WEIGHT>
290.4403

> <EXACT_MASS>
290.224580204

> <IUPAC_NAME>
(1S,2R,5S,10R,11S,14S,15S)-2,15-dimethyltetracyclo[8.7.0.0^{2,7}.0^{11,15}]heptadec-6-ene-5,14-diol

> <IUPAC_TRADITIONAL_NAME>
4-androstenediol

> <INCHI_IDENTIFIER>
InChI=1S/C19H30O2/c1-18-9-7-13(20)11-12(18)3-4-14-15-5-6-17(21)19(15,2)10-8-16(14)18/h11,13-17,20-21H,3-10H2,1-2H3/t13-,14-,15-,16-,17-,18-,19-/m0/s1

> <INCHI_KEY>
InChIKey=BTTWKVFKBPAFDK-LOVVWNRFSA-N

> <SMILES>
[H][C@@]12CC[C@H](O)[C@@]1(C)CC[C@@]1([H])[C@@]2([H])CCC2=C[C@@H](O)CC[C@]12C

> <JCHEM_ACCEPTOR_COUNT>
2

> <JCHEM_DONOR_COUNT>
2

> <JCHEM_ACIDIC_PKA>
17.5

> <JCHEM_BASIC_PKA>
-0.82

> <JCHEM_PHYSIOLOGICAL_CHARGE>
0

> <ALOGPS_LOGP>
3.1

> <JCHEM_LOGP>
2.95

> <ALOGPS_LOGS>
-3.8

> <JCHEM_POLARIZABILITY>
34.52

> <JCHEM_POLAR_SURFACE_AREA>
40.46

> <JCHEM_REFRACTIVITY>
85.33

> <JCHEM_ROTATABLE_BOND_COUNT>
0

> <ALOGPS_SOLUBILITY>
4.81e-02 g/l __ 

$$$$
