
  Mrv0541 02231215512D          

 28 29  0  0  1  0            999 V2000
    1.4243   -4.9595    0.0000 O   0  0  0  0  0  0  0  0  0  0  0  0
    0.8112   -4.4075    0.0000 C   0  0  2  0  0  0  0  0  0  0  0  0
    0.0042   -4.5790    0.0000 C   0  0  0  0  0  0  0  0  0  0  0  0
   -0.4083   -3.8645    0.0000 C   0  0  1  0  0  0  0  0  0  0  0  0
    0.1437   -3.2514    0.0000 O   0  0  0  0  0  0  0  0  0  0  0  0
    0.8974   -3.5870    0.0000 C   0  0  1  0  0  0  0  0  0  0  0  0
    1.6119   -3.1745    0.0000 C   0  0  0  0  0  0  0  0  0  0  0  0
    2.3264   -3.5870    0.0000 O   0  0  0  0  0  0  0  0  0  0  0  0
    3.0408   -3.1745    0.0000 P   0  0  1  0  0  0  0  0  0  0  0  0
    2.6283   -2.4600    0.0000 O   0  0  0  0  0  0  0  0  0  0  0  0
    3.4533   -3.8890    0.0000 O   0  0  0  0  0  0  0  0  0  0  0  0
    3.7553   -2.7620    0.0000 N   0  0  0  0  0  0  0  0  0  0  0  0
    4.4698   -3.1745    0.0000 P   0  0  2  0  0  0  0  0  0  0  0  0
    4.8823   -2.4600    0.0000 O   0  0  0  0  0  0  0  0  0  0  0  0
    4.0573   -3.8890    0.0000 O   0  0  0  0  0  0  0  0  0  0  0  0
    5.1842   -3.5870    0.0000 O   0  0  0  0  0  0  0  0  0  0  0  0
    5.8987   -3.1745    0.0000 P   0  0  0  0  0  0  0  0  0  0  0  0
    6.6132   -2.7620    0.0000 O   0  0  0  0  0  0  0  0  0  0  0  0
    5.4862   -2.4600    0.0000 O   0  0  0  0  0  0  0  0  0  0  0  0
    6.3112   -3.8890    0.0000 O   0  0  0  0  0  0  0  0  0  0  0  0
   -1.2288   -3.7783    0.0000 N   0  0  0  0  0  0  0  0  0  0  0  0
   -1.7137   -4.4457    0.0000 C   0  0  0  0  0  0  0  0  0  0  0  0
   -2.5342   -4.3595    0.0000 C   0  0  0  0  0  0  0  0  0  0  0  0
   -2.8697   -3.6058    0.0000 C   0  0  0  0  0  0  0  0  0  0  0  0
   -3.6902   -3.5196    0.0000 O   0  0  0  0  0  0  0  0  0  0  0  0
   -2.3848   -2.9384    0.0000 N   0  0  0  0  0  0  0  0  0  0  0  0
   -1.5643   -3.0246    0.0000 C   0  0  0  0  0  0  0  0  0  0  0  0
   -1.0794   -2.3572    0.0000 O   0  0  0  0  0  0  0  0  0  0  0  0
  2  1  1  6  0  0  0
  2  3  1  0  0  0  0
  3  4  1  0  0  0  0
  4  5  1  0  0  0  0
  5  6  1  0  0  0  0
  2  6  1  0  0  0  0
  6  7  1  1  0  0  0
  7  8  1  0  0  0  0
  8  9  1  0  0  0  0
  9 10  1  1  0  0  0
  9 11  2  0  0  0  0
  9 12  1  6  0  0  0
 13 12  1  1  0  0  0
 13 14  1  6  0  0  0
 13 15  2  0  0  0  0
 13 16  1  0  0  0  0
 16 17  1  0  0  0  0
 17 18  1  0  0  0  0
 17 19  1  0  0  0  0
 17 20  2  0  0  0  0
  4 21  1  6  0  0  0
 21 22  1  0  0  0  0
 22 23  2  0  0  0  0
 23 24  1  0  0  0  0
 24 25  2  0  0  0  0
 24 26  1  0  0  0  0
 26 27  1  0  0  0  0
 21 27  1  0  0  0  0
 27 28  2  0  0  0  0
M  END
> <DRUGBANK_ID>
DB01965

> <DRUG_GROUPS>
experimental

> <GENERIC_NAME>
2'-Deoxyuridine 5'-Alpha,Beta-Imido-Triphosphate

> <CHEMICAL_FORMULA>
C9H16N3O13P3

> <MOLECULAR_WEIGHT>
467.1569

> <EXACT_MASS>
466.989597149

> <IUPAC_NAME>
({[({[(2S,3R,5R)-5-(2,4-dioxo-1,2,3,4-tetrahydropyrimidin-1-yl)-3-hydroxyoxolan-2-yl]methoxy}(hydroxy)phosphoryl)amino](hydroxy)phosphoryl}oxy)phosphonic acid

> <IUPAC_TRADITIONAL_NAME>
({[(2S,3R,5R)-5-(2,4-dioxo-3H-pyrimidin-1-yl)-3-hydroxyoxolan-2-yl]methoxy(hydroxy)phosphoryl}amino(hydroxy)phosphoryl)oxyphosphonic acid

> <INCHI_IDENTIFIER>
InChI=1S/C9H16N3O13P3/c13-5-3-8(12-2-1-7(14)10-9(12)15)24-6(5)4-23-26(16,17)11-27(18,19)25-28(20,21)22/h1-2,5-6,8,13H,3-4H2,(H,10,14,15)(H2,20,21,22)(H3,11,16,17,18,19)/t5-,6+,8-/m1/s1

> <INCHI_KEY>
InChIKey=XZLLMTSKYYYJLH-GKROBHDKSA-N

> <SMILES>
O[C@@H]1C[C@@H](O[C@H]1CO[P@@](O)(=O)N[P@](O)(=O)OP(O)(O)=O)N1C=CC(=O)NC1=O

> <JCHEM_ACCEPTOR_COUNT>
11

> <JCHEM_DONOR_COUNT>
7

> <JCHEM_ACIDIC_PKA>
0.58

> <JCHEM_BASIC_PKA>
-3.2

> <JCHEM_PHYSIOLOGICAL_CHARGE>
-4

> <ALOGPS_LOGP>
-0.36

> <JCHEM_LOGP>
-3.2

> <ALOGPS_LOGS>
-1.8

> <JCHEM_POLARIZABILITY>
35.18

> <JCHEM_POLAR_SURFACE_AREA>
241.49

> <JCHEM_REFRACTIVITY>
85.62

> <JCHEM_ROTATABLE_BOND_COUNT>
8

> <ALOGPS_SOLUBILITY>
8.34e+00 g/l __ 

$$$$
