
  Mrv0541 02231215462D          

 49 51  0  0  1  0            999 V2000
    0.7642    0.0140    0.0000 C   0  0  0  0  0  0  0  0  0  0  0  0
    0.3517    0.7285    0.0000 C   0  0  0  0  0  0  0  0  0  0  0  0
   -0.0608    1.4430    0.0000 C   0  0  0  0  0  0  0  0  0  0  0  0
   -0.3628    0.3160    0.0000 C   0  0  0  0  0  0  0  0  0  0  0  0
   -1.0772    0.7285    0.0000 O   0  0  0  0  0  0  0  0  0  0  0  0
   -1.7917    0.3160    0.0000 P   0  0  2  0  0  0  0  0  0  0  0  0
   -1.3792   -0.3985    0.0000 O   0  0  0  0  0  0  0  0  0  0  0  0
   -2.2042    1.0305    0.0000 O   0  0  0  0  0  0  0  0  0  0  0  0
   -2.5062   -0.0965    0.0000 O   0  0  0  0  0  0  0  0  0  0  0  0
   -3.2206    0.3160    0.0000 P   0  0  1  0  0  0  0  0  0  0  0  0
   -3.6331   -0.3985    0.0000 O   0  0  0  0  0  0  0  0  0  0  0  0
   -2.8081    1.0305    0.0000 O   0  0  0  0  0  0  0  0  0  0  0  0
   -3.9351    0.7285    0.0000 O   0  0  0  0  0  0  0  0  0  0  0  0
   -4.6496    0.3160    0.0000 C   0  0  0  0  0  0  0  0  0  0  0  0
   -5.3641    0.7285    0.0000 C   0  0  2  0  0  0  0  0  0  0  0  0
   -6.1177    0.3929    0.0000 O   0  0  0  0  0  0  0  0  0  0  0  0
   -6.6698    1.0060    0.0000 C   0  0  2  0  0  0  0  0  0  0  0  0
   -6.2573    1.7205    0.0000 C   0  0  2  0  0  0  0  0  0  0  0  0
   -6.5928    2.4742    0.0000 O   0  0  0  0  0  0  0  0  0  0  0  0
   -5.4503    1.5490    0.0000 C   0  0  1  0  0  0  0  0  0  0  0  0
   -4.8372    2.1010    0.0000 O   0  0  0  0  0  0  0  0  0  0  0  0
   -4.0526    1.8461    0.0000 P   0  0  0  0  0  0  0  0  0  0  0  0
   -4.3075    1.0615    0.0000 O   0  0  0  0  0  0  0  0  0  0  0  0
   -3.7976    2.6307    0.0000 O   0  0  0  0  0  0  0  0  0  0  0  0
   -3.2679    1.5911    0.0000 O   0  0  0  0  0  0  0  0  0  0  0  0
   -7.4902    0.9198    0.0000 N   0  0  0  0  0  0  0  0  0  0  0  0
   -8.0423    1.5329    0.0000 C   0  0  0  0  0  0  0  0  0  0  0  0
   -8.7959    1.1973    0.0000 N   0  0  0  0  0  0  0  0  0  0  0  0
   -8.7097    0.3769    0.0000 C   0  0  0  0  0  0  0  0  0  0  0  0
   -7.9027    0.2053    0.0000 C   0  0  0  0  0  0  0  0  0  0  0  0
   -7.6478   -0.5793    0.0000 N   0  0  0  0  0  0  0  0  0  0  0  0
   -8.1998   -1.1924    0.0000 C   0  0  0  0  0  0  0  0  0  0  0  0
   -9.0068   -1.0209    0.0000 N   0  0  0  0  0  0  0  0  0  0  0  0
   -9.2617   -0.2362    0.0000 C   0  0  0  0  0  0  0  0  0  0  0  0
  -10.0687   -0.0647    0.0000 N   0  0  0  0  0  0  0  0  0  0  0  0
    1.0662    1.1410    0.0000 C   0  0  1  0  0  0  0  0  0  0  0  0
    1.0662    1.9660    0.0000 O   0  0  0  0  0  0  0  0  0  0  0  0
    1.7807    0.7285    0.0000 C   0  0  0  0  0  0  0  0  0  0  0  0
    1.7807   -0.0965    0.0000 O   0  0  0  0  0  0  0  0  0  0  0  0
    2.4951    1.1410    0.0000 N   0  0  0  0  0  0  0  0  0  0  0  0
    3.2096    0.7285    0.0000 C   0  0  0  0  0  0  0  0  0  0  0  0
    3.9241    1.1410    0.0000 C   0  0  0  0  0  0  0  0  0  0  0  0
    4.6385    0.7285    0.0000 C   0  0  0  0  0  0  0  0  0  0  0  0
    4.6385   -0.0965    0.0000 O   0  0  0  0  0  0  0  0  0  0  0  0
    5.3530    1.1410    0.0000 N   0  0  0  0  0  0  0  0  0  0  0  0
    6.0675    0.7285    0.0000 C   0  0  0  0  0  0  0  0  0  0  0  0
    6.7820    1.1410    0.0000 C   0  0  0  0  0  0  0  0  0  0  0  0
    7.4964    0.7285    0.0000 S   0  0  0  0  0  0  0  0  0  0  0  0
    8.2109    1.1410    0.0000 O   0  0  0  0  0  0  0  0  0  0  0  0
  1  2  1  0  0  0  0
  2  3  1  0  0  0  0
  2  4  1  0  0  0  0
  4  5  1  0  0  0  0
  6  5  1  1  0  0  0
  6  7  1  6  0  0  0
  6  8  2  0  0  0  0
  6  9  1  0  0  0  0
 10  9  1  6  0  0  0
 10 11  1  1  0  0  0
 10 12  2  0  0  0  0
 10 13  1  0  0  0  0
 13 14  1  0  0  0  0
 15 14  1  6  0  0  0
 15 16  1  0  0  0  0
 16 17  1  0  0  0  0
 17 18  1  0  0  0  0
 18 19  1  6  0  0  0
 18 20  1  0  0  0  0
 15 20  1  0  0  0  0
 20 21  1  1  0  0  0
 21 22  1  0  0  0  0
 22 23  1  0  0  0  0
 22 24  1  0  0  0  0
 22 25  2  0  0  0  0
 17 26  1  1  0  0  0
 26 27  1  0  0  0  0
 27 28  2  0  0  0  0
 28 29  1  0  0  0  0
 29 30  2  0  0  0  0
 26 30  1  0  0  0  0
 30 31  1  0  0  0  0
 31 32  2  0  0  0  0
 32 33  1  0  0  0  0
 33 34  2  0  0  0  0
 29 34  1  0  0  0  0
 34 35  1  0  0  0  0
  2 36  1  0  0  0  0
 36 37  1  1  0  0  0
 36 38  1  0  0  0  0
 38 39  2  0  0  0  0
 38 40  1  0  0  0  0
 40 41  1  0  0  0  0
 41 42  1  0  0  0  0
 42 43  1  0  0  0  0
 43 44  2  0  0  0  0
 43 45  1  0  0  0  0
 45 46  1  0  0  0  0
 46 47  1  0  0  0  0
 47 48  1  0  0  0  0
 48 49  1  0  0  0  0
M  END
> <DRUGBANK_ID>
DB01846

> <DRUG_GROUPS>
experimental

> <GENERIC_NAME>
Oxidized Coenzyme A

> <CHEMICAL_FORMULA>
C21H36N7O17P3S

> <MOLECULAR_WEIGHT>
783.534

> <EXACT_MASS>
783.110122987

> <IUPAC_NAME>
{[(2S,3R,4R,5R)-5-(6-amino-9H-purin-9-yl)-4-hydroxy-2-({[hydroxy({hydroxy[(3R)-3-hydroxy-3-[(2-{[2-(hydroxysulfanyl)ethyl]carbamoyl}ethyl)carbamoyl]-2,2-dimethylpropoxy]phosphoryl}oxy)phosphoryl]oxy}methyl)oxolan-3-yl]oxy}phosphonic acid

> <IUPAC_TRADITIONAL_NAME>
[(2S,3R,4R,5R)-5-(6-aminopurin-9-yl)-4-hydroxy-2-[({hydroxy[hydroxy(3R)-3-hydroxy-3-[(2-{[2-(hydroxysulfanyl)ethyl]carbamoyl}ethyl)carbamoyl]-2,2-dimethylpropoxyphosphoryl]oxyphosphoryl}oxy)methyl]oxolan-3-yl]oxyphosphonic acid

> <INCHI_IDENTIFIER>
InChI=1S/C21H36N7O17P3S/c1-21(2,16(31)19(32)24-4-3-12(29)23-5-6-49-40)8-42-48(38,39)45-47(36,37)41-7-11-15(44-46(33,34)35)14(30)20(43-11)28-10-27-13-17(22)25-9-26-18(13)28/h9-11,14-16,20,30-31,40H,3-8H2,1-2H3,(H,23,29)(H,24,32)(H,36,37)(H,38,39)(H2,22,25,26)(H2,33,34,35)/t11-,14+,15-,16-,20+/m0/s1

> <INCHI_KEY>
InChIKey=HWMGJMKHOJKGLQ-VPHNIEJBSA-N

> <SMILES>
CC(C)(CO[P@](O)(=O)O[P@@](O)(=O)OC[C@@H]1O[C@H]([C@H](O)[C@H]1OP(O)(O)=O)N1C=NC2=C1N=CN=C2N)[C@@H](O)C(=O)NCCC(=O)NCCSO

> <JCHEM_ACCEPTOR_COUNT>
17

> <JCHEM_DONOR_COUNT>
10

> <JCHEM_ACIDIC_PKA>
0.83

> <JCHEM_BASIC_PKA>
4.95

> <JCHEM_PHYSIOLOGICAL_CHARGE>
-4

> <ALOGPS_LOGP>
-0.87

> <JCHEM_LOGP>
-7.2

> <ALOGPS_LOGS>
-2.2

> <JCHEM_POLARIZABILITY>
68.16

> <JCHEM_POLAR_SURFACE_AREA>
366.79

> <JCHEM_REFRACTIVITY>
164.52

> <JCHEM_ROTATABLE_BOND_COUNT>
19

> <ALOGPS_SOLUBILITY>
4.91e+00 g/l __ 

$$$$
