1589
  Mrv0541 02231215342D          

 25 27  0  0  0  0            999 V2000
    4.0267   -2.3989    0.0000 Cl   0  0  0  0  0  0  0  0  0  0  0  0
    4.2399    2.3989    0.0000 S    0  0  0  0  0  0  0  0  0  0  0  0
    1.6936    1.0712    0.0000 F    0  0  0  0  0  0  0  0  0  0  0  0
    1.6500    2.2371    0.0000 F    0  0  0  0  0  0  0  0  0  0  0  0
    2.8159    2.2807    0.0000 F    0  0  0  0  0  0  0  0  0  0  0  0
    6.8699    0.7297    0.0000 F    0  0  0  0  0  0  0  0  0  0  0  0
    3.6638    0.9312    0.0000 N    0  0  0  0  0  0  0  0  0  0  0  0
    5.5176    0.9312    0.0000 N    0  0  0  0  0  0  0  0  0  0  0  0
    3.8475    0.1269    0.0000 C    0  0  0  0  0  0  0  0  0  0  0  0
    4.5907   -0.2311    0.0000 C    0  0  0  0  0  0  0  0  0  0  0  0
    5.3340    0.1269    0.0000 C    0  0  0  0  0  0  0  0  0  0  0  0
    2.8595    1.1148    0.0000 C    0  0  0  0  0  0  0  0  0  0  0  0
    4.1782    1.5762    0.0000 C    0  0  0  0  0  0  0  0  0  0  0  0
    5.0032    1.5762    0.0000 C    0  0  0  0  0  0  0  0  0  0  0  0
    3.1301   -0.3462    0.0000 C    0  0  0  0  0  0  0  0  0  0  0  0
    4.6682   -1.0869    0.0000 C    0  0  0  0  0  0  0  0  0  0  0  0
    5.9790   -0.3875    0.0000 C    0  0  0  0  0  0  0  0  0  0  0  0
    2.2548    1.6759    0.0000 C    0  0  0  0  0  0  0  0  0  0  0  0
    3.1876   -1.2036    0.0000 C    0  0  0  0  0  0  0  0  0  0  0  0
    3.9619   -1.5765    0.0000 C    0  0  0  0  0  0  0  0  0  0  0  0
    6.7470   -0.0860    0.0000 C    0  0  0  0  0  0  0  0  0  0  0  0
    5.8561   -1.2033    0.0000 C    0  0  0  0  0  0  0  0  0  0  0  0
    7.3920   -0.6004    0.0000 C    0  0  0  0  0  0  0  0  0  0  0  0
    6.5011   -1.7176    0.0000 C    0  0  0  0  0  0  0  0  0  0  0  0
    7.2691   -1.4163    0.0000 C    0  0  0  0  0  0  0  0  0  0  0  0
  1 20  1  0  0  0  0
  2 13  2  0  0  0  0
  3 18  1  0  0  0  0
  4 18  1  0  0  0  0
  5 18  1  0  0  0  0
  6 21  1  0  0  0  0
  7  9  1  0  0  0  0
  7 12  1  0  0  0  0
  7 13  1  0  0  0  0
  8 11  2  0  0  0  0
  8 14  1  0  0  0  0
  9 10  2  0  0  0  0
  9 15  1  0  0  0  0
 10 11  1  0  0  0  0
 10 16  1  0  0  0  0
 11 17  1  0  0  0  0
 12 18  1  0  0  0  0
 13 14  1  0  0  0  0
 15 19  2  0  0  0  0
 16 20  2  0  0  0  0
 17 21  1  0  0  0  0
 17 22  2  0  0  0  0
 19 20  1  0  0  0  0
 21 23  2  0  0  0  0
 22 24  1  0  0  0  0
 23 25  1  0  0  0  0
 24 25  2  0  0  0  0
M  END
> <DRUGBANK_ID>
DB01589

> <DRUG_GROUPS>
approved; illicit

> <GENERIC_NAME>
Quazepam

> <SYNONYMS>
Quazepamum

> <BRANDS>
Doral; Dormalin

> <CHEMICAL_FORMULA>
C17H11ClF4N2S

> <MOLECULAR_WEIGHT>
386.794

> <EXACT_MASS>
386.026759579

> <IUPAC_NAME>
7-chloro-5-(2-fluorophenyl)-1-(2,2,2-trifluoroethyl)-2,3-dihydro-1H-1,4-benzodiazepine-2-thione

> <IUPAC_TRADITIONAL_NAME>
quazepam

> <INCHI_IDENTIFIER>
InChI=1S/C17H11ClF4N2S/c18-10-5-6-14-12(7-10)16(11-3-1-2-4-13(11)19)23-8-15(25)24(14)9-17(20,21)22/h1-7H,8-9H2

> <INCHI_KEY>
InChIKey=IKMPWMZBZSAONZ-UHFFFAOYSA-N

> <SMILES>
FC1=CC=CC=C1C1=NCC(=S)N(CC(F)(F)F)C2=C1C=C(Cl)C=C2

> <JCHEM_ACCEPTOR_COUNT>
1

> <JCHEM_DONOR_COUNT>
0

> <JCHEM_ACIDIC_PKA>
18.93

> <JCHEM_BASIC_PKA>
2.59

> <JCHEM_PHYSIOLOGICAL_CHARGE>
0

> <ALOGPS_LOGP>
4.76

> <JCHEM_LOGP>
5.06

> <ALOGPS_LOGS>
-5.2

> <JCHEM_POLARIZABILITY>
33.99

> <JCHEM_POLAR_SURFACE_AREA>
15.6

> <JCHEM_REFRACTIVITY>
93.47

> <JCHEM_ROTATABLE_BOND_COUNT>
3

> <ALOGPS_SOLUBILITY>
2.31e-03 g/l __ 

$$$$
