1019
  Mrv0541 02231215112D          

 11 10  0  0  1  0            999 V2000
    4.5079    0.3630    0.0000 O   0  0  0  0  0  0  0  0  0  0  0  0
    5.2224   -0.8745    0.0000 O   0  0  0  0  0  0  0  0  0  0  0  0
    2.3645   -0.0495    0.0000 N   0  3  0  0  0  0  0  0  0  0  0  0
    5.9369    0.3630    0.0000 N   0  0  0  0  0  0  0  0  0  0  0  0
    3.0790    0.3630    0.0000 C   0  0  0  0  0  0  0  0  0  0  0  0
    3.7935   -0.0495    0.0000 C   0  0  0  0  0  0  0  0  0  0  0  0
    1.6500   -0.4620    0.0000 C   0  0  0  0  0  0  0  0  0  0  0  0
    1.9519    0.6650    0.0000 C   0  0  0  0  0  0  0  0  0  0  0  0
    2.7769   -0.7640    0.0000 C   0  0  0  0  0  0  0  0  0  0  0  0
    3.7935   -0.8745    0.0000 C   0  0  0  0  0  0  0  0  0  0  0  0
    5.2224   -0.0495    0.0000 C   0  0  0  0  0  0  0  0  0  0  0  0
  1  6  1  0  0  0  0
  1 11  1  0  0  0  0
  2 11  2  0  0  0  0
  3  5  1  0  0  0  0
  3  7  1  0  0  0  0
  3  8  1  0  0  0  0
  3  9  1  0  0  0  0
  4 11  1  0  0  0  0
  5  6  1  0  0  0  0
  6 10  1  0  0  0  0
M  END
> <DRUGBANK_ID>
DB01019

> <DRUG_GROUPS>
approved

> <GENERIC_NAME>
Bethanechol

> <SYNONYMS>
Amidopropyldimethylbetaine; carbamoyl-β-methylcholine; carbamyl-β-methylcholine

> <SALTS>
Bethanechol Chloride

> <BRANDS>
Duvoid; Myotonachol; Myotonine; Urecholine; Uro-Carb

> <CHEMICAL_FORMULA>
C7H17N2O2

> <MOLECULAR_WEIGHT>
161.2221

> <EXACT_MASS>
161.129002798

> <IUPAC_NAME>
1-(trimethylazaniumyl)propan-2-yl carbamate

> <IUPAC_TRADITIONAL_NAME>
bethanechol

> <INCHI_IDENTIFIER>
InChI=1S/C7H16N2O2/c1-6(11-7(8)10)5-9(2,3)4/h6H,5H2,1-4H3,(H-,8,10)/p+1

> <INCHI_KEY>
InChIKey=NZUPCNDJBJXXRF-UHFFFAOYSA-O

> <SMILES>
CC(C[N+](C)(C)C)OC(N)=O

> <JCHEM_ACCEPTOR_COUNT>
1

> <JCHEM_DONOR_COUNT>
1

> <JCHEM_ACIDIC_PKA>
15.34

> <JCHEM_PHYSIOLOGICAL_CHARGE>
1

> <ALOGPS_LOGP>
-2.8

> <JCHEM_LOGP>
-4.1

> <ALOGPS_LOGS>
-2.8

> <JCHEM_POLARIZABILITY>
17.73

> <JCHEM_POLAR_SURFACE_AREA>
52.32

> <JCHEM_REFRACTIVITY>
54.44

> <JCHEM_ROTATABLE_BOND_COUNT>
4

> <ALOGPS_SOLUBILITY>
3.11e-01 g/l __ 

$$$$
