
  Mrv0541 02231215112D          

 33 34  0  0  1  0            999 V2000
    0.0000   -0.4125    0.0000 C   0  0  0  0  0  0  0  0  0  0  0  0
    0.7145   -0.8250    0.0000 C   0  0  0  0  0  0  0  0  0  0  0  0
    0.0000    0.4125    0.0000 C   0  0  0  0  0  0  0  0  0  0  0  0
    0.7145    0.8250    0.0000 C   0  0  0  0  0  0  0  0  0  0  0  0
   -0.7145    0.8250    0.0000 C   0  0  0  0  0  0  0  0  0  0  0  0
   -0.7145   -0.8250    0.0000 C   0  0  0  0  0  0  0  0  0  0  0  0
    1.4289    0.4125    0.0000 C   0  0  0  0  0  0  0  0  0  0  0  0
   -1.4289    0.4125    0.0000 C   0  0  0  0  0  0  0  0  0  0  0  0
    1.4289   -0.4125    0.0000 C   0  0  0  0  0  0  0  0  0  0  0  0
   -1.4289   -0.4125    0.0000 C   0  0  0  0  0  0  0  0  0  0  0  0
    0.7145    1.6500    0.0000 O   0  0  0  0  0  0  0  0  0  0  0  0
    0.7145   -1.6500    0.0000 O   0  0  0  0  0  0  0  0  0  0  0  0
    2.1434    0.8250    0.0000 C   0  0  0  0  0  0  0  0  0  0  0  0
    3.5724    0.8250    0.0000 C   0  0  0  0  0  0  0  0  0  0  0  0
    4.2868    0.4125    0.0000 C   0  0  0  0  0  0  0  0  0  0  0  0
    3.5724    1.6500    0.0000 C   0  0  0  0  0  0  0  0  0  0  0  0
    5.0013    0.8250    0.0000 C   0  0  0  0  0  0  0  0  0  0  0  0
    5.7158    0.4125    0.0000 C   0  0  0  0  0  0  0  0  0  0  0  0
    6.4302    0.8250    0.0000 C   0  0  1  0  0  0  0  0  0  0  0  0
    7.1447    0.4125    0.0000 C   0  0  0  0  0  0  0  0  0  0  0  0
    6.4302    1.6500    0.0000 C   0  0  0  0  0  0  0  0  0  0  0  0
    7.8592    0.8250    0.0000 C   0  0  0  0  0  0  0  0  0  0  0  0
    8.5737    0.4125    0.0000 C   0  0  0  0  0  0  0  0  0  0  0  0
    9.2881    0.8250    0.0000 C   0  0  1  0  0  0  0  0  0  0  0  0
   10.0026    0.4125    0.0000 C   0  0  0  0  0  0  0  0  0  0  0  0
    9.2881    1.6500    0.0000 C   0  0  0  0  0  0  0  0  0  0  0  0
   10.7171    0.8250    0.0000 C   0  0  0  0  0  0  0  0  0  0  0  0
   11.4315    0.4125    0.0000 C   0  0  0  0  0  0  0  0  0  0  0  0
   12.1460    0.8250    0.0000 C   0  0  0  0  0  0  0  0  0  0  0  0
   12.1460    1.6500    0.0000 C   0  0  0  0  0  0  0  0  0  0  0  0
   12.8605    0.4125    0.0000 C   0  0  0  0  0  0  0  0  0  0  0  0
    2.8579    0.4125    0.0000 C   0  0  0  0  0  0  0  0  0  0  0  0
    2.1434   -0.8250    0.0000 C   0  0  0  0  0  0  0  0  0  0  0  0
  1  2  1  0  0  0  0
  2 12  2  0  0  0  0
  3  1  2  0  0  0  0
  3  4  1  0  0  0  0
  4 11  2  0  0  0  0
  3  5  1  0  0  0  0
  1  6  1  0  0  0  0
  4  7  1  0  0  0  0
  7 13  1  0  0  0  0
  5  8  2  0  0  0  0
  7  9  2  0  0  0  0
  2  9  1  0  0  0  0
  9 33  1  0  0  0  0
  6 10  2  0  0  0  0
  8 10  1  0  0  0  0
 13 32  1  0  0  0  0
 32 14  2  0  0  0  0
 14 15  1  0  0  0  0
 14 16  1  0  0  0  0
 15 17  1  0  0  0  0
 17 18  1  0  0  0  0
 18 19  1  0  0  0  0
 19 20  1  0  0  0  0
 19 21  1  6  0  0  0
 20 22  1  0  0  0  0
 22 23  1  0  0  0  0
 23 24  1  0  0  0  0
 24 25  1  0  0  0  0
 24 26  1  6  0  0  0
 25 27  1  0  0  0  0
 27 28  1  0  0  0  0
 28 29  1  0  0  0  0
 29 30  1  0  0  0  0
 29 31  1  0  0  0  0
M  END
> <DRUGBANK_ID>
DB01022

> <DRUG_GROUPS>
approved

> <GENERIC_NAME>
Phylloquinone

> <SYNONYMS>
2-Methyl-3-phytyl-1,4-naphthoquinone; 3-Phytylmenadione; alpha-Phylloquinone; Phyllochinon; Phylloquinone; Phythyl-menadion; Phytomenadione; Phytonadione; Phytylmenadione; trans-Phylloquinone; Vitamin K1; Î±-phylloquinone

> <BRANDS>
Aqua-Mephyton; Konakion; Mephyton

> <CHEMICAL_FORMULA>
C31H46O2

> <MOLECULAR_WEIGHT>
450.6957

> <EXACT_MASS>
450.349780716

> <IUPAC_NAME>
2-methyl-3-[(2E,7R,11R)-3,7,11,15-tetramethylhexadec-2-en-1-yl]-1,4-dihydronaphthalene-1,4-dione

> <IUPAC_TRADITIONAL_NAME>
phytonadione

> <INCHI_IDENTIFIER>
InChI=1S/C31H46O2/c1-22(2)12-9-13-23(3)14-10-15-24(4)16-11-17-25(5)20-21-27-26(6)30(32)28-18-7-8-19-29(28)31(27)33/h7-8,18-20,22-24H,9-17,21H2,1-6H3/b25-20+/t23-,24-/m1/s1

> <INCHI_KEY>
InChIKey=MBWXNTAXLNYFJB-NKFFZRIASA-N

> <SMILES>
CC(C)CCC[C@@H](C)CCC[C@@H](C)CCC\C(C)=C\CC1=C(C)C(=O)C2=C(C=CC=C2)C1=O

> <JCHEM_ACCEPTOR_COUNT>
2

> <JCHEM_DONOR_COUNT>
0

> <JCHEM_BASIC_PKA>
-7.2

> <JCHEM_PHYSIOLOGICAL_CHARGE>
0

> <ALOGPS_LOGP>
8.48

> <JCHEM_LOGP>
9.7

> <ALOGPS_LOGS>
-6.9

> <JCHEM_POLARIZABILITY>
55.92

> <JCHEM_POLAR_SURFACE_AREA>
34.14

> <JCHEM_REFRACTIVITY>
142.96

> <JCHEM_ROTATABLE_BOND_COUNT>
14

> <ALOGPS_SOLUBILITY>
5.92e-05 g/l __ 

$$$$
