WAC
  Mrv0541 02231215512D          

 29 32  0  0  0  0            999 V2000
   -2.5396   -2.2721    0.0000 C   0  0  0  0  0  0  0  0  0  0  0  0
   -1.8118   -1.8835    0.0000 C   0  0  0  0  0  0  0  0  0  0  0  0
   -1.7845   -1.0589    0.0000 C   0  0  0  0  0  0  0  0  0  0  0  0
   -2.4849   -0.6230    0.0000 C   0  0  0  0  0  0  0  0  0  0  0  0
   -3.2127   -1.0116    0.0000 C   0  0  0  0  0  0  0  0  0  0  0  0
   -3.2400   -1.8362    0.0000 C   0  0  0  0  0  0  0  0  0  0  0  0
   -1.1535   -0.5275    0.0000 N   0  0  0  0  0  0  0  0  0  0  0  0
   -1.4639    0.2369    0.0000 C   0  0  0  0  0  0  0  0  0  0  0  0
   -2.2868    0.1778    0.0000 C   0  0  0  0  0  0  0  0  0  0  0  0
   -1.1036    0.9790    0.0000 C   0  0  1  0  0  0  0  0  0  0  0  0
   -1.5661    1.6621    0.0000 N   0  0  2  0  0  0  0  0  0  0  0  0
   -2.3890    1.6031    0.0000 C   0  0  0  0  0  0  0  0  0  0  0  0
   -2.7493    0.8610    0.0000 C   0  0  0  0  0  0  0  0  0  0  0  0
   -0.2807    1.0380    0.0000 C   0  0  0  0  0  0  0  0  0  0  0  0
    0.0797    1.7802    0.0000 C   0  0  0  0  0  0  0  0  0  0  0  0
   -0.3829    2.4633    0.0000 C   0  0  0  0  0  0  0  0  0  0  0  0
   -1.2058    2.4043    0.0000 C   0  0  0  0  0  0  0  0  0  0  0  0
   -0.3526   -0.7257    0.0000 C   0  0  0  0  0  0  0  0  0  0  0  0
    0.2194   -0.1312    0.0000 C   0  0  0  0  0  0  0  0  0  0  0  0
    1.0203   -0.3294    0.0000 C   0  0  0  0  0  0  0  0  0  0  0  0
    1.5923    0.2651    0.0000 N   0  0  0  0  0  0  0  0  0  0  0  0
    2.3931    0.0670    0.0000 S   0  0  0  0  0  0  0  0  0  0  0  0
    3.1940   -0.1312    0.0000 C   0  0  0  0  0  0  0  0  0  0  0  0
    3.7660    0.4633    0.0000 C   0  0  0  0  0  0  0  0  0  0  0  0
    3.4228   -0.9238    0.0000 C   0  0  0  0  0  0  0  0  0  0  0  0
    2.1950   -0.7339    0.0000 O   0  0  0  0  0  0  0  0  0  0  0  0
    2.5913    0.8678    0.0000 O   0  0  0  0  0  0  0  0  0  0  0  0
   -3.5722    0.8020    0.0000 O   0  0  0  0  0  0  0  0  0  0  0  0
   -0.7762    0.4955    0.0000 H   0  0  0  0  0  0  0  0  0  0  0  0
  1  2  2  0  0  0  0
  1  6  1  0  0  0  0
  2  3  1  0  0  0  0
  3  4  2  0  0  0  0
  3  7  1  0  0  0  0
  4  5  1  0  0  0  0
  4  9  1  0  0  0  0
  5  6  2  0  0  0  0
  7  8  1  0  0  0  0
  7 18  1  0  0  0  0
  8  9  2  0  0  0  0
  8 10  1  0  0  0  0
  9 13  1  0  0  0  0
 10 11  1  0  0  0  0
 10 14  1  0  0  0  0
 10 29  1  6  0  0  0
 11 12  1  0  0  0  0
 11 17  1  6  0  0  0
 12 13  1  0  0  0  0
 13 28  2  0  0  0  0
 14 15  1  0  0  0  0
 15 16  1  0  0  0  0
 16 17  1  0  0  0  0
 18 19  1  0  0  0  0
 19 20  1  0  0  0  0
 20 21  1  0  0  0  0
 21 22  1  0  0  0  0
 22 23  1  0  0  0  0
 22 26  2  0  0  0  0
 22 27  2  0  0  0  0
 23 24  1  0  0  0  0
 23 25  1  0  0  0  0
M  END
> <DRUGBANK_ID>
DB01967

> <DRUG_GROUPS>
experimental

> <GENERIC_NAME>
N-{3-[(7ar,12as,12bs)-7-Oxo-1,3,4,6,7,7a,12a,12b-Octahydroindolo[2,3-a]Quinolizin-12(2h)-Yl]Propyl}Propane-2-Sulfonamide

> <CHEMICAL_FORMULA>
C21H29N3O3S

> <MOLECULAR_WEIGHT>
403.538

> <EXACT_MASS>
403.192962499

> <IUPAC_NAME>
N-{3-[(2S)-9-oxo-7,17-diazatetracyclo[8.7.0.0^{2,7}.0^{11,16}]heptadeca-1(10),11,13,15-tetraen-17-yl]propyl}propane-2-sulfonamide

> <IUPAC_TRADITIONAL_NAME>
N-{3-[(2S)-9-oxo-7,17-diazatetracyclo[8.7.0.0^{2,7}.0^{11,16}]heptadeca-1(10),11,13,15-tetraen-17-yl]propyl}propane-2-sulfonamide

> <INCHI_IDENTIFIER>
InChI=1S/C21H29N3O3S/c1-15(2)28(26,27)22-11-7-13-24-17-9-4-3-8-16(17)20-19(25)14-23-12-6-5-10-18(23)21(20)24/h3-4,8-9,15,18,22H,5-7,10-14H2,1-2H3/t18-/m0/s1

> <INCHI_KEY>
InChIKey=LICJTIDRHJECTD-SFHVURJKSA-N

> <SMILES>
[H][C@@]12CCCC[N@]1CC(=O)C1=C2N(CCCNS(=O)(=O)C(C)C)C2=C1C=CC=C2

> <JCHEM_ACCEPTOR_COUNT>
4

> <JCHEM_DONOR_COUNT>
1

> <JCHEM_ACIDIC_PKA>
11.91

> <JCHEM_BASIC_PKA>
3.76

> <JCHEM_PHYSIOLOGICAL_CHARGE>
0

> <ALOGPS_LOGP>
2.3

> <JCHEM_LOGP>
1.98

> <ALOGPS_LOGS>
-3.1

> <JCHEM_POLARIZABILITY>
44.87

> <JCHEM_POLAR_SURFACE_AREA>
71.41

> <JCHEM_REFRACTIVITY>
111.39

> <JCHEM_ROTATABLE_BOND_COUNT>
5

> <ALOGPS_SOLUBILITY>
2.88e-01 g/l __ 

$$$$
