1353
  Mrv0541 02231215242D          

 15 15  0  0  0  0            999 V2000
    1.6500   -0.1915    0.0000 O   0  0  0  0  0  0  0  0  0  0  0  0
    4.5080   -0.1915    0.0000 O   0  0  0  0  0  0  0  0  0  0  0  0
    3.0791   -2.6665    0.0000 O   0  0  0  0  0  0  0  0  0  0  0  0
    2.3645   -1.4290    0.0000 N   0  0  0  0  0  0  0  0  0  0  0  0
    3.7935   -1.4290    0.0000 N   0  0  0  0  0  0  0  0  0  0  0  0
    3.0791   -0.1915    0.0000 C   0  0  0  0  0  0  0  0  0  0  0  0
    3.4916    0.5231    0.0000 C   0  0  0  0  0  0  0  0  0  0  0  0
    2.6665    0.5231    0.0000 C   0  0  0  0  0  0  0  0  0  0  0  0
    3.0791    1.2375    0.0000 C   0  0  0  0  0  0  0  0  0  0  0  0
    2.3645   -0.6040    0.0000 C   0  0  0  0  0  0  0  0  0  0  0  0
    3.7935   -0.6040    0.0000 C   0  0  0  0  0  0  0  0  0  0  0  0
    3.4916    1.9520    0.0000 C   0  0  0  0  0  0  0  0  0  0  0  0
    1.8415    0.5231    0.0000 C   0  0  0  0  0  0  0  0  0  0  0  0
    3.0791   -1.8415    0.0000 C   0  0  0  0  0  0  0  0  0  0  0  0
    3.0791    2.6665    0.0000 C   0  0  0  0  0  0  0  0  0  0  0  0
  1 10  2  0  0  0  0
  2 11  2  0  0  0  0
  3 14  2  0  0  0  0
  4 10  1  0  0  0  0
  4 14  1  0  0  0  0
  5 11  1  0  0  0  0
  5 14  1  0  0  0  0
  6  7  1  0  0  0  0
  6  8  1  0  0  0  0
  6 10  1  0  0  0  0
  6 11  1  0  0  0  0
  7  9  1  0  0  0  0
  8 13  1  0  0  0  0
  9 12  1  0  0  0  0
 12 15  1  0  0  0  0
M  END
> <DRUGBANK_ID>
DB01353

> <DRUG_GROUPS>
approved; illicit

> <GENERIC_NAME>
Butethal

> <SYNONYMS>
Butobarbital; Butobarbitone

> <BRANDS>
Neonal; Soneryl

> <CHEMICAL_FORMULA>
C10H16N2O3

> <MOLECULAR_WEIGHT>
212.2456

> <EXACT_MASS>
212.116092388

> <IUPAC_NAME>
5-butyl-5-ethyl-1,3-diazinane-2,4,6-trione

> <IUPAC_TRADITIONAL_NAME>
butethal

> <INCHI_IDENTIFIER>
InChI=1S/C10H16N2O3/c1-3-5-6-10(4-2)7(13)11-9(15)12-8(10)14/h3-6H2,1-2H3,(H2,11,12,13,14,15)

> <INCHI_KEY>
InChIKey=STDBAQMTJLUMFW-UHFFFAOYSA-N

> <SMILES>
CCCCC1(CC)C(=O)NC(=O)NC1=O

> <JCHEM_ACCEPTOR_COUNT>
3

> <JCHEM_DONOR_COUNT>
2

> <JCHEM_ACIDIC_PKA>
8.48

> <JCHEM_PHYSIOLOGICAL_CHARGE>
0

> <ALOGPS_LOGP>
1.65

> <JCHEM_LOGP>
1.61

> <ALOGPS_LOGS>
-2.2

> <JCHEM_POLARIZABILITY>
21.62

> <JCHEM_POLAR_SURFACE_AREA>
75.27

> <JCHEM_REFRACTIVITY>
53.45

> <JCHEM_ROTATABLE_BOND_COUNT>
4

> <ALOGPS_SOLUBILITY>
1.27e+00 g/l __ 

$$$$
