
  Mrv0541 02231215462D          

 15 14  0  0  1  0            999 V2000
    1.7605    1.8414    0.0000 O   0  0  0  0  0  0  0  0  0  0  0  0
    2.4750    1.4289    0.0000 C   0  0  0  0  0  0  0  0  0  0  0  0
    3.1895    1.8414    0.0000 C   0  0  0  0  0  0  0  0  0  0  0  0
    3.9039    1.4289    0.0000 C   0  0  1  0  0  0  0  0  0  0  0  0
    3.9039    0.6039    0.0000 O   0  0  0  0  0  0  0  0  0  0  0  0
    4.6184    1.8414    0.0000 C   0  0  2  0  0  0  0  0  0  0  0  0
    4.6184    2.6664    0.0000 O   0  0  0  0  0  0  0  0  0  0  0  0
    5.3329    1.4289    0.0000 C   0  0  2  0  0  0  0  0  0  0  0  0
    5.3329    0.6039    0.0000 O   0  0  0  0  0  0  0  0  0  0  0  0
    6.0474    1.8414    0.0000 C   0  0  0  0  0  0  0  0  0  0  0  0
    6.7618    1.4289    0.0000 C   0  0  0  0  0  0  0  0  0  0  0  0
    7.4763    1.8414    0.0000 P   0  0  0  0  0  0  0  0  0  0  0  0
    8.1908    2.2539    0.0000 O   0  0  0  0  0  0  0  0  0  0  0  0
    7.8888    1.1270    0.0000 O   0  0  0  0  0  0  0  0  0  0  0  0
    7.0638    2.5559    0.0000 O   0  0  0  0  0  0  0  0  0  0  0  0
  1  2  1  0  0  0  0
  2  3  1  0  0  0  0
  3  4  1  0  0  0  0
  4  5  1  6  0  0  0
  4  6  1  0  0  0  0
  6  7  1  6  0  0  0
  6  8  1  0  0  0  0
  8  9  1  1  0  0  0
  8 10  1  0  0  0  0
 10 11  2  0  0  0  0
 11 12  1  0  0  0  0
 12 13  1  0  0  0  0
 12 14  1  0  0  0  0
 12 15  2  0  0  0  0
M  END
> <DRUGBANK_ID>
DB01840

> <DRUG_GROUPS>
experimental

> <GENERIC_NAME>
2-Deoxy-D-Glucitol 6-(E)-Vinylhomophosphonate

> <CHEMICAL_FORMULA>
C7H15O7P

> <MOLECULAR_WEIGHT>
242.1636

> <EXACT_MASS>
242.055539346

> <IUPAC_NAME>
[(1E,3R,4S,5R)-3,4,5,7-tetrahydroxyhept-1-en-1-yl]phosphonic acid

> <IUPAC_TRADITIONAL_NAME>
(1E,3R,4S,5R)-3,4,5,7-tetrahydroxyhept-1-en-1-ylphosphonic acid

> <INCHI_IDENTIFIER>
InChI=1S/C7H15O7P/c8-3-1-5(9)7(11)6(10)2-4-15(12,13)14/h2,4-11H,1,3H2,(H2,12,13,14)/b4-2+/t5-,6-,7+/m1/s1

> <INCHI_KEY>
InChIKey=CZQSGBWQBMZTMQ-AEVYZNAZSA-N

> <SMILES>
OCC[C@@H](O)[C@H](O)[C@H](O)\C=C\P(O)(O)=O

> <JCHEM_ACCEPTOR_COUNT>
7

> <JCHEM_DONOR_COUNT>
6

> <JCHEM_ACIDIC_PKA>
3.54

> <JCHEM_BASIC_PKA>
-2.4

> <JCHEM_PHYSIOLOGICAL_CHARGE>
-1

> <ALOGPS_LOGP>
-1.9

> <JCHEM_LOGP>
-3.4

> <ALOGPS_LOGS>
-1.1

> <JCHEM_POLARIZABILITY>
21.08

> <JCHEM_POLAR_SURFACE_AREA>
138.45

> <JCHEM_REFRACTIVITY>
51.54

> <JCHEM_ROTATABLE_BOND_COUNT>
6

> <ALOGPS_SOLUBILITY>
2.10e+01 g/l __ 

$$$$
