
  Mrv0541 02231215432D          

 14 15  0  0  0  0            999 V2000
    4.0668    2.3479    0.0000 C   0  0  0  0  0  0  0  0  0  0  0  0
    3.3523    1.9354    0.0000 N   0  0  0  0  0  0  0  0  0  0  0  0
    3.3523    1.1104    0.0000 C   0  0  0  0  0  0  0  0  0  0  0  0
    4.0668    0.6979    0.0000 O   0  0  0  0  0  0  0  0  0  0  0  0
    2.6378    0.6979    0.0000 N   0  0  0  0  0  0  0  0  0  0  0  0
    2.6378   -0.1271    0.0000 C   0  0  0  0  0  0  0  0  0  0  0  0
    1.9233    1.1104    0.0000 C   0  0  0  0  0  0  0  0  0  0  0  0
    1.1387    0.8555    0.0000 N   0  0  0  0  0  0  0  0  0  0  0  0
    0.6538    1.5229    0.0000 C   0  0  0  0  0  0  0  0  0  0  0  0
   -0.1712    1.5229    0.0000 N   0  0  0  0  0  0  0  0  0  0  0  0
    1.1387    2.1904    0.0000 N   0  0  0  0  0  0  0  0  0  0  0  0
    1.9233    1.9354    0.0000 C   0  0  0  0  0  0  0  0  0  0  0  0
    2.6378    2.3479    0.0000 C   0  0  0  0  0  0  0  0  0  0  0  0
    2.6378    3.1729    0.0000 O   0  0  0  0  0  0  0  0  0  0  0  0
  1  2  1  0  0  0  0
  2  3  1  0  0  0  0
  3  4  2  0  0  0  0
  3  5  1  0  0  0  0
  5  6  1  0  0  0  0
  5  7  1  0  0  0  0
  7  8  4  0  0  0  0
  8  9  4  0  0  0  0
  9 10  1  0  0  0  0
  9 11  4  0  0  0  0
 11 12  4  0  0  0  0
  7 12  4  0  0  0  0
 12 13  1  0  0  0  0
  2 13  1  0  0  0  0
 13 14  2  0  0  0  0
M  END
> <DRUGBANK_ID>
DB01778

> <DRUG_GROUPS>
experimental

> <GENERIC_NAME>
8-Amino-1,3-Dimethyl-3,7-Dihydropurine-2,6-Dione

> <CHEMICAL_FORMULA>
C7H8N5O2

> <MOLECULAR_WEIGHT>
194.1707

> <EXACT_MASS>
194.067799525

> <IUPAC_NAME>
8-amino-1,3-dimethylpurine-2,6-dione

> <IUPAC_TRADITIONAL_NAME>
8-amino-1,3-dimethylpurine-2,6-dione

> <SMILES>
CN1c2nc(N)nc2C(=O)N(C)C1=O

> <JCHEM_ACCEPTOR_COUNT>
5

> <JCHEM_DONOR_COUNT>
1

> <JCHEM_ACIDIC_PKA>
14.57

> <JCHEM_BASIC_PKA>
-2.8

> <JCHEM_PHYSIOLOGICAL_CHARGE>
0

> <ALOGPS_LOGP>
-0.23

> <JCHEM_LOGP>
-0.93

> <ALOGPS_LOGS>
-1

> <JCHEM_POLARIZABILITY>
18.26

> <JCHEM_POLAR_SURFACE_AREA>
95.8

> <JCHEM_REFRACTIVITY>
57.41

> <JCHEM_ROTATABLE_BOND_COUNT>
0

> <ALOGPS_SOLUBILITY>
1.90e+01 g/l __ 

$$$$
