
  Mrv0541 02231215522D          

 17 17  0  0  1  0            999 V2000
    1.4289    0.0000    0.0000 N   0  0  0  0  0  0  0  0  0  0  0  0
    1.4289   -0.8250    0.0000 C   0  0  1  0  0  0  0  0  0  0  0  0
    0.7145   -1.2375    0.0000 C   0  0  0  0  0  0  0  0  0  0  0  0
    0.0000   -0.8250    0.0000 O   0  0  0  0  0  0  0  0  0  0  0  0
   -0.7145   -1.2375    0.0000 S   0  0  0  0  0  0  0  0  0  0  0  0
   -0.3020   -1.9520    0.0000 O   0  0  0  0  0  0  0  0  0  0  0  0
   -1.1270   -0.5230    0.0000 O   0  0  0  0  0  0  0  0  0  0  0  0
   -1.4289   -1.6500    0.0000 C   0  0  0  0  0  0  0  0  0  0  0  0
   -2.1434   -1.2375    0.0000 C   0  0  0  0  0  0  0  0  0  0  0  0
   -2.8579   -1.6500    0.0000 C   0  0  0  0  0  0  0  0  0  0  0  0
   -3.5724   -1.2375    0.0000 C   0  0  0  0  0  0  0  0  0  0  0  0
   -3.5724   -0.4125    0.0000 C   0  0  0  0  0  0  0  0  0  0  0  0
   -2.8579    0.0000    0.0000 C   0  0  0  0  0  0  0  0  0  0  0  0
   -2.1434   -0.4125    0.0000 C   0  0  0  0  0  0  0  0  0  0  0  0
    2.1434   -1.2375    0.0000 C   0  0  0  0  0  0  0  0  0  0  0  0
    2.8579   -0.8250    0.0000 O   0  0  0  0  0  0  0  0  0  0  0  0
    2.1434   -2.0625    0.0000 O   0  0  0  0  0  0  0  0  0  0  0  0
  2  1  1  6  0  0  0
  2  3  1  0  0  0  0
  3  4  1  0  0  0  0
  4  5  1  0  0  0  0
  5  6  2  0  0  0  0
  5  7  2  0  0  0  0
  5  8  1  0  0  0  0
  8  9  1  0  0  0  0
  9 10  2  0  0  0  0
 10 11  1  0  0  0  0
 11 12  2  0  0  0  0
 12 13  1  0  0  0  0
 13 14  2  0  0  0  0
  9 14  1  0  0  0  0
  2 15  1  0  0  0  0
 15 16  1  0  0  0  0
 15 17  2  0  0  0  0
M  END
> <DRUGBANK_ID>
DB01973

> <DRUG_GROUPS>
experimental

> <GENERIC_NAME>
O-Benzylsulfonyl-Serine

> <CHEMICAL_FORMULA>
C10H13NO5S

> <MOLECULAR_WEIGHT>
259.279

> <EXACT_MASS>
259.051443221

> <IUPAC_NAME>
(2S)-2-amino-3-[(phenylmethane)sulfonyloxy]propanoic acid

> <IUPAC_TRADITIONAL_NAME>
(2S)-2-amino-3-(phenylmethanesulfonyloxy)propanoic acid

> <INCHI_IDENTIFIER>
InChI=1S/C10H13NO5S/c11-9(10(12)13)6-16-17(14,15)7-8-4-2-1-3-5-8/h1-5,9H,6-7,11H2,(H,12,13)/t9-/m0/s1

> <INCHI_KEY>
InChIKey=GCZVEKLTOLTWLM-VIFPVBQESA-N

> <SMILES>
N[C@@H](COS(=O)(=O)CC1=CC=CC=C1)C(O)=O

> <JCHEM_ACCEPTOR_COUNT>
5

> <JCHEM_DONOR_COUNT>
2

> <JCHEM_ACIDIC_PKA>
1.53

> <JCHEM_BASIC_PKA>
8.57

> <JCHEM_PHYSIOLOGICAL_CHARGE>
0

> <ALOGPS_LOGP>
-1.4

> <JCHEM_LOGP>
-2.1

> <ALOGPS_LOGS>
-2

> <JCHEM_POLARIZABILITY>
24.47

> <JCHEM_POLAR_SURFACE_AREA>
106.69

> <JCHEM_REFRACTIVITY>
59.53

> <JCHEM_ROTATABLE_BOND_COUNT>
6

> <ALOGPS_SOLUBILITY>
2.30e+00 g/l __ 

$$$$
