
  Mrv0541 04191212162D          

 59 63  0  0  0  0            999 V2000
    1.0895   -0.5562    0.0000 C   0  0  0  0  0  0  0  0  0  0  0  0
    1.0895   -1.3813    0.0000 C   0  0  0  0  0  0  0  0  0  0  0  0
   -0.3395   -1.3813    0.0000 C   0  0  0  0  0  0  0  0  0  0  0  0
    0.3750   -1.7938    0.0000 C   0  0  0  0  0  0  0  0  0  0  0  0
    2.5184   -1.3813    0.0000 C   0  0  0  0  0  0  0  0  0  0  0  0
    3.2329   -1.7938    0.0000 C   0  0  0  0  0  0  0  0  0  0  0  0
    3.9473   -1.3813    0.0000 N   0  0  0  0  0  0  0  0  0  0  0  0
    5.3763   -1.3812    0.0000 C   0  0  0  0  0  0  0  0  0  0  0  0
    4.6618   -2.6188    0.0000 C   0  0  0  0  0  0  0  0  0  0  0  0
    5.3763   -3.0313    0.0000 C   0  0  0  0  0  0  0  0  0  0  0  0
    6.0907   -1.7938    0.0000 C   0  0  0  0  0  0  0  0  0  0  0  0
    4.6618   -1.7938    0.0000 N   0  0  0  0  0  0  0  0  0  0  0  0
    6.0907   -2.6188    0.0000 N   0  0  0  0  0  0  0  0  0  0  0  0
    6.8052   -3.0313    0.0000 C   0  0  0  0  0  0  0  0  0  0  0  0
    2.5184   -0.5562    0.0000 C   0  0  0  0  0  0  0  0  0  0  0  0
    3.2329   -0.1437    0.0000 N   0  0  0  0  0  0  0  0  0  0  0  0
    3.9473    1.9188    0.0000 C   0  0  0  0  0  0  0  0  0  0  0  0
    3.2329    2.3313    0.0000 C   0  0  0  0  0  0  0  0  0  0  0  0
    2.5184    1.9188    0.0000 C   0  0  0  0  0  0  0  0  0  0  0  0
   -1.7684   -1.3812    0.0000 C   0  0  0  0  0  0  0  0  0  0  0  0
   -2.4829   -1.7937    0.0000 C   0  0  0  0  0  0  0  0  0  0  0  0
   -2.4829   -2.6187    0.0000 O   0  0  0  0  0  0  0  0  0  0  0  0
    3.2329    0.6813    0.0000 C   0  0  0  0  0  0  0  0  0  0  0  0
    2.5184    1.0938    0.0000 O   0  0  0  0  0  0  0  0  0  0  0  0
    1.8039   -0.1437    0.0000 C   0  0  0  0  0  0  0  0  0  0  0  0
    1.8039    0.6813    0.0000 O   0  0  0  0  0  0  0  0  0  0  0  0
    0.3750   -0.1437    0.0000 C   0  0  0  0  0  0  0  0  0  0  0  0
    0.3750    0.6813    0.0000 O   0  0  0  0  0  0  0  0  0  0  0  0
   -0.3395   -0.5562    0.0000 C   0  0  0  0  0  0  0  0  0  0  0  0
   -0.5530    0.2406    0.0000 C   0  0  0  0  0  0  0  0  0  0  0  0
   -1.0539   -1.7938    0.0000 O   0  0  0  0  0  0  0  0  0  0  0  0
    0.3750   -2.6188    0.0000 C   0  0  0  0  0  0  0  0  0  0  0  0
    0.9583   -3.2021    0.0000 O   0  0  0  0  0  0  0  0  0  0  0  0
   -1.0539   -2.6188    0.0000 C   0  0  1  0  0  0  0  0  0  0  0  0
   -1.0539   -3.4438    0.0000 C   0  0  0  0  0  0  0  0  0  0  0  0
   -1.0540   -0.1437    0.0000 C   0  0  2  0  0  0  0  0  0  0  0  0
   -1.7684    0.2688    0.0000 C   0  0  0  0  0  0  0  0  0  0  0  0
   -1.7684   -0.5562    0.0000 C   0  0  1  0  0  0  0  0  0  0  0  0
   -2.4829   -0.1437    0.0000 O   0  0  0  0  0  0  0  0  0  0  0  0
   -3.1974   -0.5562    0.0000 C   0  0  0  0  0  0  0  0  0  0  0  0
   -1.0540    0.6813    0.0000 C   0  0  1  0  0  0  0  0  0  0  0  0
   -1.7684    1.0938    0.0000 O   0  0  0  0  0  0  0  0  0  0  0  0
   -3.3079    0.6813    0.0000 C   0  0  0  0  0  0  0  0  0  0  0  0
   -2.5934    1.0938    0.0000 C   0  0  0  0  0  0  0  0  0  0  0  0
   -2.8070    1.8906    0.0000 O   0  0  0  0  0  0  0  0  0  0  0  0
   -0.3395    1.0938    0.0000 C   0  0  2  0  0  0  0  0  0  0  0  0
   -1.0540    1.5063    0.0000 C   0  0  0  0  0  0  0  0  0  0  0  0
   -0.3395    1.9188    0.0000 C   0  0  2  0  0  0  0  0  0  0  0  0
   -1.0540    2.3313    0.0000 O   0  0  0  0  0  0  0  0  0  0  0  0
    0.3750    2.3313    0.0000 C   0  0  2  0  0  0  0  0  0  0  0  0
    0.3750    3.1563    0.0000 C   0  0  0  0  0  0  0  0  0  0  0  0
    1.0895    1.9188    0.0000 C   0  0  1  0  0  0  0  0  0  0  0  0
    1.0895    1.0938    0.0000 O   0  0  0  0  0  0  0  0  0  0  0  0
    1.8039    2.3313    0.0000 C   0  0  1  0  0  0  0  0  0  0  0  0
    1.8039    3.1563    0.0000 C   0  0  0  0  0  0  0  0  0  0  0  0
    3.9473    1.0938    0.0000 C   0  0  0  0  0  0  0  0  0  0  0  0
    4.6618    0.6813    0.0000 C   0  0  0  0  0  0  0  0  0  0  0  0
    1.8039   -1.7938    0.0000 C   0  0  0  0  0  0  0  0  0  0  0  0
    1.8039   -2.6188    0.0000 O   0  0  0  0  0  0  0  0  0  0  0  0
 27 29  2  0  0  0  0
 27  1  1  0  0  0  0
 29  3  1  0  0  0  0
  4  2  1  0  0  0  0
 25  1  2  0  0  0  0
  2  1  1  0  0  0  0
  2 58  2  0  0  0  0
 25 15  1  0  0  0  0
 58  5  1  0  0  0  0
  5 15  2  0  0  0  0
  3 31  1  0  0  0  0
  3  4  2  0  0  0  0
  4 32  1  0  0  0  0
 32 34  1  0  0  0  0
 34 31  1  0  0  0  0
  5  6  1  0  0  0  0
  6  7  2  0  0  0  0
  7 12  1  0  0  0  0
  8 12  1  0  0  0  0
 12  9  1  0  0  0  0
  8 11  1  0  0  0  0
  9 10  1  0  0  0  0
 10 13  1  0  0  0  0
 13 11  1  0  0  0  0
 13 14  1  0  0  0  0
 15 16  1  0  0  0  0
 16 23  1  0  0  0  0
 23 56  1  0  0  0  0
 56 17  2  0  0  0  0
 17 18  1  0  0  0  0
 18 19  2  0  0  0  0
 19 54  1  0  0  0  0
 54 52  1  0  0  0  0
 52 50  1  0  0  0  0
 50 48  1  0  0  0  0
 48 46  1  0  0  0  0
 46 41  1  0  0  0  0
 41 36  1  0  0  0  0
 36 38  1  0  0  0  0
 38 20  1  0  0  0  0
 20 21  2  0  0  0  0
 21 22  1  0  0  0  0
 34 22  1  0  0  0  0
 23 24  2  0  0  0  0
 25 26  1  0  0  0  0
 27 28  1  0  0  0  0
 29 30  1  0  0  0  0
 32 33  2  0  0  0  0
 34 35  1  6  0  0  0
 36 37  1  6  0  0  0
 38 39  1  6  0  0  0
 39 40  1  0  0  0  0
 41 42  1  1  0  0  0
 42 44  1  0  0  0  0
 44 43  1  0  0  0  0
 44 45  2  0  0  0  0
 46 47  1  1  0  0  0
 48 49  1  6  0  0  0
 50 51  1  6  0  0  0
 52 53  1  6  0  0  0
 54 55  1  1  0  0  0
 56 57  1  0  0  0  0
 58 59  1  0  0  0  0
M  END
> <DRUGBANK_ID>
DB01045

> <DRUG_GROUPS>
approved

> <GENERIC_NAME>
Rifampicin

> <SYNONYMS>
RFP; Rifampin

> <SALTS>
Rifampicin sodium

> <BRANDS>
Rifadin; Rifadine; Rifaldin; Rifoldin; Rimactan; Rimactane; Rofact; Tubocin

> <CHEMICAL_FORMULA>
C43H58N4O12

> <MOLECULAR_WEIGHT>
822.9402

> <EXACT_MASS>
822.40512334

> <IUPAC_NAME>
(7S,11S,12R,13S,14R,15R,16R,17S,18S)-2,15,17,27,29-pentahydroxy-11-methoxy-3,7,12,14,16,18,22-heptamethyl-26-[(E)-N-(4-methylpiperazin-1-yl)carboximidoyl]-6,23-dioxo-8,30-dioxa-24-azatetracyclo[23.3.1.1^{4,7}.0^{5,28}]triaconta-1,3,5(28),9,19,21,25(29),26-octaen-13-yl acetate

> <IUPAC_TRADITIONAL_NAME>
(7S,11S,12R,13S,14R,15R,16R,17S,18S)-2,15,17,27,29-pentahydroxy-11-methoxy-3,7,12,14,16,18,22-heptamethyl-26-[(E)-N-(4-methylpiperazin-1-yl)carboximidoyl]-6,23-dioxo-8,30-dioxa-24-azatetracyclo[23.3.1.1^{4,7}.0^{5,28}]triaconta-1,3,5(28),9,19,21,25(29),26-octaen-13-yl acetate

> <INCHI_IDENTIFIER>
InChI=1S/C43H58N4O12/c1-21-12-11-13-22(2)42(55)45-33-28(20-44-47-17-15-46(9)16-18-47)37(52)30-31(38(33)53)36(51)26(6)40-32(30)41(54)43(8,59-40)57-19-14-29(56-10)23(3)39(58-27(7)48)25(5)35(50)24(4)34(21)49/h11-14,19-21,23-25,29,34-35,39,49-53H,15-18H2,1-10H3,(H,45,55)/b12-11+,19-14+,22-13-,44-20+/t21-,23+,24+,25+,29-,34-,35+,39+,43-/m0/s1

> <INCHI_KEY>
InChIKey=JQXXHWHPUNPDRT-WLSIYKJHSA-N

> <SMILES>
CO[C@H]1\C=C\O[C@@]2(C)OC3=C(C2=O)C2=C(O)C(\C=N\N4CCN(C)CC4)=C(NC(=O)\C(C)=C/C=C/[C@H](C)[C@H](O)[C@@H](C)[C@@H](O)[C@@H](C)[C@H](OC(C)=O)[C@@H]1C)C(O)=C2C(O)=C3C

> <JCHEM_ACCEPTOR_COUNT>
14

> <JCHEM_DONOR_COUNT>
6

> <JCHEM_ACIDIC_PKA>
6.9

> <JCHEM_BASIC_PKA>
7.53

> <JCHEM_PHYSIOLOGICAL_CHARGE>
1

> <ALOGPS_LOGP>
3.85

> <JCHEM_LOGP>
2.77

> <ALOGPS_LOGS>
-4.3

> <JCHEM_POLARIZABILITY>
86.46

> <JCHEM_POLAR_SURFACE_AREA>
220.15

> <JCHEM_REFRACTIVITY>
225.58

> <JCHEM_ROTATABLE_BOND_COUNT>
5

> <ALOGPS_SOLUBILITY>
4.13e-02 g/l __ 

$$$$
