
  Mrv0541 02231215422D          

 49 51  0  0  1  0            999 V2000
    4.4194   -0.8516    0.0000 S   0  0  0  0  0  0  0  0  0  0  0  0
    3.7621   -0.7018    0.0000 O   0  0  0  0  0  0  0  0  0  0  0  0
    4.0041   -0.2799    0.0000 O   0  0  0  0  0  0  0  0  0  0  0  0
    4.9911   -0.4362    0.0000 O   0  0  0  0  0  0  0  0  0  0  0  0
    3.4905   -1.8270    0.0000 O   0  0  0  0  0  0  0  0  0  0  0  0
    5.7914   -3.4987    0.0000 O   0  0  0  0  0  0  0  0  0  0  0  0
    7.7263   -2.0236    0.0000 O   0  0  0  0  0  0  0  0  0  0  0  0
    4.9718    3.4282    0.0000 O   0  0  0  0  0  0  0  0  0  0  0  0
   10.0357   -1.4407    0.0000 O   0  0  0  0  0  0  0  0  0  0  0  0
   10.3515    0.5527    0.0000 O   0  0  0  0  0  0  0  0  0  0  0  0
    5.1881   -2.5107    0.0000 N   0  0  0  0  0  0  0  0  0  0  0  0
    2.6305   -1.3949    0.0000 N   0  0  0  0  0  0  0  0  0  0  0  0
    7.5897   -2.7476    0.0000 N   0  0  0  0  0  0  0  0  0  0  0  0
    6.0722    3.0690    0.0000 N   0  0  0  0  0  0  0  0  0  0  0  0
    4.8348   -1.4233    0.0000 C   0  0  1  0  0  0  0  0  0  0  0  0
    4.6164   -2.0953    0.0000 C   0  0  0  0  0  0  0  0  0  0  0  0
    5.5414   -1.4233    0.0000 C   0  0  0  0  0  0  0  0  0  0  0  0
    5.7598   -2.0953    0.0000 C   0  0  0  0  0  0  0  0  0  0  0  0
    3.8477   -1.2669    0.0000 C   0  0  0  0  0  0  0  0  0  0  0  0
    4.0929   -1.4576    0.0000 C   0  0  0  0  0  0  0  0  0  0  0  0
    5.9564   -2.8116    0.0000 C   0  0  0  0  0  0  0  0  0  0  0  0
    3.2022   -0.9795    0.0000 C   0  0  0  0  0  0  0  0  0  0  0  0
    3.6489    0.1155    0.0000 C   0  0  2  0  0  0  0  0  0  0  0  0
    2.9423    0.1155    0.0000 C   0  0  0  0  0  0  0  0  0  0  0  0
    3.7619    0.9329    0.0000 C   0  0  2  0  0  0  0  0  0  0  0  0
    6.7775   -2.8926    0.0000 C   0  0  0  0  0  0  0  0  0  0  0  0
    2.7044   -2.0977    0.0000 C   0  0  0  0  0  0  0  0  0  0  0  0
    1.9849   -1.1074    0.0000 C   0  0  0  0  0  0  0  0  0  0  0  0
    2.5890   -0.4965    0.0000 C   0  0  0  0  0  0  0  0  0  0  0  0
    2.5889    0.7275    0.0000 C   0  0  0  0  0  0  0  0  0  0  0  0
    3.0817    1.1246    0.0000 C   0  0  0  0  0  0  0  0  0  0  0  0
    4.0924    1.6888    0.0000 C   0  0  0  0  0  0  0  0  0  0  0  0
    7.0540   -2.2421    0.0000 C   0  0  0  0  0  0  0  0  0  0  0  0
    2.1327   -2.5130    0.0000 C   0  0  0  0  0  0  0  0  0  0  0  0
    1.4133   -1.5228    0.0000 C   0  0  0  0  0  0  0  0  0  0  0  0
    8.3322   -2.3877    0.0000 C   0  0  0  0  0  0  0  0  0  0  0  0
    4.6159    2.3268    0.0000 C   0  0  0  0  0  0  0  0  0  0  0  0
    8.9491   -1.8397    0.0000 C   0  0  0  0  0  0  0  0  0  0  0  0
    5.2927    2.7986    0.0000 C   0  0  0  0  0  0  0  0  0  0  0  0
    9.3939   -1.1448    0.0000 C   0  0  0  0  0  0  0  0  0  0  0  0
    9.6335   -0.3552    0.0000 C   0  0  0  0  0  0  0  0  0  0  0  0
    9.6497    0.4697    0.0000 C   0  0  1  0  0  0  0  0  0  0  0  0
    6.8959    3.1175    0.0000 C   0  0  0  0  0  0  0  0  0  0  0  0
    9.4415    1.2681    0.0000 C   0  0  0  0  0  0  0  0  0  0  0  0
    7.7018    2.9407    0.0000 C   0  0  0  0  0  0  0  0  0  0  0  0
    9.0243    1.9800    0.0000 C   0  0  0  0  0  0  0  0  0  0  0  0
    8.4295    2.5518    0.0000 C   0  0  0  0  0  0  0  0  0  0  0  0
    9.5792    2.4174    0.0000 C   0  0  0  0  0  0  0  0  0  0  0  0
    4.2416   -1.5173    0.0000 H   0  0  0  0  0  0  0  0  0  0  0  0
  1  3  2  0  0  0  0
  1  4  2  0  0  0  0
  1 15  1  0  0  0  0
  1 19  1  0  0  0  0
  2 20  1  0  0  0  0
  2 23  1  0  0  0  0
  5 20  2  0  0  0  0
  6 21  2  0  0  0  0
  7 33  1  0  0  0  0
  7 36  1  0  0  0  0
  8 39  2  0  0  0  0
  9 40  2  0  0  0  0
 42 10  1  1  0  0  0
 11 16  1  0  0  0  0
 11 18  1  0  0  0  0
 11 21  1  0  0  0  0
 12 22  1  0  0  0  0
 12 27  1  0  0  0  0
 12 28  1  0  0  0  0
 13 26  1  0  0  0  0
 13 36  2  0  0  0  0
 14 39  1  0  0  0  0
 14 43  1  0  0  0  0
 15 16  1  0  0  0  0
 15 17  1  0  0  0  0
 15 49  1  1  0  0  0
 16 20  1  0  0  0  0
 17 18  1  0  0  0  0
 19 22  1  0  0  0  0
 21 26  1  0  0  0  0
 23 24  1  6  0  0  0
 23 25  1  0  0  0  0
 24 29  1  0  0  0  0
 24 30  1  0  0  0  0
 25 31  1  6  0  0  0
 25 32  1  0  0  0  0
 26 33  2  0  0  0  0
 27 34  1  0  0  0  0
 28 35  1  0  0  0  0
 32 37  2  0  0  0  0
 36 38  1  0  0  0  0
 37 39  1  0  0  0  0
 38 40  1  0  0  0  0
 40 41  1  0  0  0  0
 41 42  1  0  0  0  0
 42 44  1  0  0  0  0
 43 45  1  0  0  0  0
 44 46  2  0  0  0  0
 45 47  2  0  0  0  0
 46 47  1  0  0  0  0
 46 48  1  0  0  0  0
M  END
> <DRUGBANK_ID>
DB01764

> <DRUG_GROUPS>
approved

> <GENERIC_NAME>
Dalfopristin

> <SYNONYMS>
Dalfopristina; Dalfopristine; Dalfopristinum

> <CHEMICAL_FORMULA>
C34H50N4O9S

> <MOLECULAR_WEIGHT>
690.847

> <EXACT_MASS>
690.329849908

> <IUPAC_NAME>
(6R,10R,11R,21S)-6-{[2-(diethylamino)ethane]sulfonyl}-21-hydroxy-11,19-dimethyl-10-(propan-2-yl)-9,26-dioxa-3,15,28-triazatricyclo[23.2.1.0^{3,7}]octacosa-1(27),12,17,19,25(28)-pentaene-2,8,14,23-tetrone

> <IUPAC_TRADITIONAL_NAME>
(6R,10R,11R,21S)-6-[2-(diethylamino)ethanesulfonyl]-21-hydroxy-10-isopropyl-11,19-dimethyl-9,26-dioxa-3,15,28-triazatricyclo[23.2.1.0^{3,7}]octacosa-1(27),12,17,19,25(28)-pentaene-2,8,14,23-tetrone

> <INCHI_IDENTIFIER>
InChI=1S/C34H50N4O9S/c1-7-37(8-2)16-17-48(44,45)28-13-15-38-31(28)34(43)47-32(22(3)4)24(6)11-12-29(41)35-14-9-10-23(5)18-25(39)19-26(40)20-30-36-27(21-46-30)33(38)42/h9-12,18,21-22,24-25,28,31-32,39H,7-8,13-17,19-20H2,1-6H3,(H,35,41)/b10-9-,12-11-,23-18-/t24-,25-,28-,31?,32-/m1/s1

> <INCHI_KEY>
InChIKey=SUYRLXYYZQTJHF-FUODUHIRSA-N

> <SMILES>
CCN(CC)CCS(=O)(=O)[C@]1([H])CCN2C(=O)C3=COC(=N3)CC(=O)C[C@H](O)\C=C(\C)/C=C\CNC(=O)\C=C/[C@@H](C)[C@@H](C(C)C)OC(=O)C12

> <JCHEM_ACCEPTOR_COUNT>
9

> <JCHEM_DONOR_COUNT>
2

> <JCHEM_ACIDIC_PKA>
11.38

> <JCHEM_BASIC_PKA>
7.09

> <JCHEM_PHYSIOLOGICAL_CHARGE>
1

> <ALOGPS_LOGP>
2.57

> <JCHEM_LOGP>
1.58

> <ALOGPS_LOGS>
-4

> <JCHEM_POLARIZABILITY>
73.8

> <JCHEM_POLAR_SURFACE_AREA>
176.42

> <JCHEM_REFRACTIVITY>
182.84

> <JCHEM_ROTATABLE_BOND_COUNT>
7

> <ALOGPS_SOLUBILITY>
7.16e-02 g/l __ 

$$$$
