
  Mrv0541 02231215372D          

 26 28  0  0  1  0            999 V2000
   -3.4255   -1.9958    0.0000 C   0  0  0  0  0  0  0  0  0  0  0  0
   -2.6719   -2.3314    0.0000 C   0  0  1  0  0  0  0  0  0  0  0  0
   -2.5856   -3.1518    0.0000 O   0  0  0  0  0  0  0  0  0  0  0  0
   -2.0044   -1.8464    0.0000 C   0  0  2  0  0  0  0  0  0  0  0  0
   -2.0907   -1.0260    0.0000 N   0  0  0  0  0  0  0  0  0  0  0  0
   -1.2508   -2.1820    0.0000 C   0  0  0  0  0  0  0  0  0  0  0  0
   -0.5363   -1.7695    0.0000 N   0  0  0  0  0  0  0  0  0  0  0  0
    0.0768   -2.3215    0.0000 C   0  0  0  0  0  0  0  0  0  0  0  0
    0.8838   -2.1500    0.0000 C   0  0  0  0  0  0  0  0  0  0  0  0
    1.1387   -1.3654    0.0000 C   0  0  0  0  0  0  0  0  0  0  0  0
    0.6538   -0.6979    0.0000 C   0  0  0  0  0  0  0  0  0  0  0  0
    1.1387   -0.0305    0.0000 N   0  0  0  0  0  0  0  0  0  0  0  0
    1.9233   -0.2854    0.0000 C   0  0  0  0  0  0  0  0  0  0  0  0
    2.6378    0.1271    0.0000 C   0  0  0  0  0  0  0  0  0  0  0  0
    3.3523   -0.2854    0.0000 C   0  0  0  0  0  0  0  0  0  0  0  0
    3.3523   -1.1104    0.0000 C   0  0  0  0  0  0  0  0  0  0  0  0
    2.6378   -1.5229    0.0000 C   0  0  0  0  0  0  0  0  0  0  0  0
    2.6378   -2.3479    0.0000 N   0  0  0  0  0  0  0  0  0  0  0  0
    1.9233   -1.1104    0.0000 C   0  0  0  0  0  0  0  0  0  0  0  0
   -0.2587   -3.0752    0.0000 C   0  0  0  0  0  0  0  0  0  0  0  0
    0.1538   -3.7897    0.0000 O   0  0  0  0  0  0  0  0  0  0  0  0
   -1.0792   -2.9890    0.0000 N   0  0  0  0  0  0  0  0  0  0  0  0
   -1.6313   -3.6021    0.0000 C   0  0  0  0  0  0  0  0  0  0  0  0
   -1.3763   -4.3867    0.0000 C   0  0  0  0  0  0  0  0  0  0  0  0
   -0.5693   -4.5582    0.0000 O   0  0  0  0  0  0  0  0  0  0  0  0
   -1.9284   -4.9998    0.0000 O   0  0  0  0  0  0  0  0  0  0  0  0
  1  2  1  0  0  0  0
  2  3  1  6  0  0  0
  2  4  1  0  0  0  0
  4  5  1  6  0  0  0
  4  6  1  0  0  0  0
  6  7  2  0  0  0  0
  7  8  1  0  0  0  0
  8  9  2  0  0  0  0
  9 10  1  0  0  0  0
 10 11  2  0  0  0  0
 11 12  1  0  0  0  0
 12 13  1  0  0  0  0
 13 14  1  0  0  0  0
 14 15  2  0  0  0  0
 15 16  1  0  0  0  0
 16 17  2  0  0  0  0
 17 18  1  0  0  0  0
 17 19  1  0  0  0  0
 10 19  1  0  0  0  0
 13 19  2  0  0  0  0
  8 20  1  0  0  0  0
 20 21  2  0  0  0  0
 20 22  1  0  0  0  0
  6 22  1  0  0  0  0
 22 23  1  0  0  0  0
 23 24  1  0  0  0  0
 24 25  1  0  0  0  0
 24 26  2  0  0  0  0
M  END
> <DRUGBANK_ID>
DB01641

> <DRUG_GROUPS>
experimental

> <GENERIC_NAME>
(5z)-2-[(1s,2r)-1-Amino-2-Hydroxypropyl]-5-[(4-Amino-1h-Indol-3-Yl)Methylene]-3-(2-Hydroxyethyl)-3,5-Dihydro-4h-Imidazol-4-One

> <CHEMICAL_FORMULA>
C17H19N5O4

> <MOLECULAR_WEIGHT>
357.3639

> <EXACT_MASS>
357.143704121

> <IUPAC_NAME>
2-[(4Z)-4-[(4-amino-1H-indol-3-yl)methylidene]-2-[(1R,2R)-1-amino-2-hydroxypropyl]-5-oxo-4,5-dihydro-1H-imidazol-1-yl]acetic acid

> <IUPAC_TRADITIONAL_NAME>
[(4Z)-4-[(4-amino-1H-indol-3-yl)methylidene]-2-[(1R,2R)-1-amino-2-hydroxypropyl]-5-oxoimidazol-1-yl]acetic acid

> <INCHI_IDENTIFIER>
InChI=1S/C17H19N5O4/c1-8(23)15(19)16-21-12(17(26)22(16)7-13(24)25)5-9-6-20-11-4-2-3-10(18)14(9)11/h2-6,8,15,20,23H,7,18-19H2,1H3,(H,24,25)/b12-5-/t8-,15+/m1/s1

> <INCHI_KEY>
InChIKey=JUWJATLABHTRDF-JURWUIOISA-N

> <SMILES>
C[C@@H](O)[C@H](N)C1=N\C(=C/C2=CNC3=C2C(N)=CC=C3)C(=O)N1CC(O)=O

> <JCHEM_ACCEPTOR_COUNT>
7

> <JCHEM_DONOR_COUNT>
5

> <JCHEM_ACIDIC_PKA>
3.76

> <JCHEM_BASIC_PKA>
7.56

> <JCHEM_PHYSIOLOGICAL_CHARGE>
0

> <ALOGPS_LOGP>
-0.62

> <JCHEM_LOGP>
-3.3

> <ALOGPS_LOGS>
-3.2

> <JCHEM_POLARIZABILITY>
36.62

> <JCHEM_POLAR_SURFACE_AREA>
158.03

> <JCHEM_REFRACTIVITY>
95.69

> <JCHEM_ROTATABLE_BOND_COUNT>
5

> <ALOGPS_SOLUBILITY>
2.11e-01 g/l __ 

$$$$
