1057
  Mrv0541 02231215122D          

 15 14  0  0  0  0            999 V2000
    3.3008    1.5700    0.0000 S   0  0  0  0  0  0  0  0  0  0  0  0
    2.5863    1.1574    0.0000 P   0  0  0  0  0  0  0  0  0  0  0  0
    1.8719    0.7450    0.0000 O   0  0  0  0  0  0  0  0  0  0  0  0
    2.1739    1.8719    0.0000 O   0  0  0  0  0  0  0  0  0  0  0  0
    2.9989    0.4429    0.0000 O   0  0  0  0  0  0  0  0  0  0  0  0
    5.4442    1.1574    0.0000 N   0  3  0  0  0  0  0  0  0  0  0  0
    4.7298    1.5700    0.0000 C   0  0  0  0  0  0  0  0  0  0  0  0
    6.1586    0.7450    0.0000 C   0  0  0  0  0  0  0  0  0  0  0  0
    5.8567    1.8719    0.0000 C   0  0  0  0  0  0  0  0  0  0  0  0
    5.0318    0.4429    0.0000 C   0  0  0  0  0  0  0  0  0  0  0  0
    4.0153    1.1574    0.0000 C   0  0  0  0  0  0  0  0  0  0  0  0
    1.1574    1.1574    0.0000 C   0  0  0  0  0  0  0  0  0  0  0  0
    2.5863    2.5863    0.0000 C   0  0  0  0  0  0  0  0  0  0  0  0
    0.4429    0.7450    0.0000 C   0  0  0  0  0  0  0  0  0  0  0  0
    2.1739    3.3008    0.0000 C   0  0  0  0  0  0  0  0  0  0  0  0
  1  2  1  0  0  0  0
  1 11  1  0  0  0  0
  2  3  1  0  0  0  0
  2  4  1  0  0  0  0
  2  5  2  0  0  0  0
  3 12  1  0  0  0  0
  4 13  1  0  0  0  0
  6  7  1  0  0  0  0
  6  8  1  0  0  0  0
  6  9  1  0  0  0  0
  6 10  1  0  0  0  0
  7 11  1  0  0  0  0
 12 14  1  0  0  0  0
 13 15  1  0  0  0  0
M  END
> <DRUGBANK_ID>
DB01057

> <DRUG_GROUPS>
approved

> <GENERIC_NAME>
Echothiophate

> <SYNONYMS>


> <BRANDS>
Phospholine Iodide

> <CHEMICAL_FORMULA>
C9H23NO3PS

> <MOLECULAR_WEIGHT>
256.323

> <EXACT_MASS>
256.113625809

> <IUPAC_NAME>
diethyl {[2-(trimethylazaniumyl)ethyl]sulfanyl}phosphonate

> <IUPAC_TRADITIONAL_NAME>
diethyl [2-(trimethylaminio)ethyl]sulfanylphosphonate

> <INCHI_IDENTIFIER>
InChI=1S/C9H23NO3PS/c1-6-12-14(11,13-7-2)15-9-8-10(3,4)5/h6-9H2,1-5H3/q+1

> <INCHI_KEY>
InChIKey=BJOLKYGKSZKIGU-UHFFFAOYSA-N

> <SMILES>
CCOP(=O)(OCC)SCC[N+](C)(C)C

> <JCHEM_ACCEPTOR_COUNT>
1

> <JCHEM_DONOR_COUNT>
0

> <JCHEM_BASIC_PKA>
-8.2

> <JCHEM_PHYSIOLOGICAL_CHARGE>
1

> <ALOGPS_LOGP>
-2.1

> <JCHEM_LOGP>
-3.1

> <ALOGPS_LOGS>
-3

> <JCHEM_POLARIZABILITY>
27.65

> <JCHEM_POLAR_SURFACE_AREA>
35.53

> <JCHEM_REFRACTIVITY>
78.14

> <JCHEM_ROTATABLE_BOND_COUNT>
8

> <ALOGPS_SOLUBILITY>
2.97e-01 g/l __ 

$$$$
