1021
  Mrv0541 02231215112D          

 20 21  0  0  1  0            999 V2000
    2.3641    1.7106    0.0000 Cl   0  0  0  0  0  0  0  0  0  0  0  0
    1.6498    0.4732    0.0000 Cl   0  0  0  0  0  0  0  0  0  0  0  0
    6.7049    0.9057    0.0000 Cl   0  0  0  0  0  0  0  0  0  0  0  0
    3.7929   -0.7641    0.0000 S    0  0  0  0  0  0  0  0  0  0  0  0
    6.7049   -0.7840    0.0000 S    0  0  0  0  0  0  0  0  0  0  0  0
    4.2053   -1.4784    0.0000 O    0  0  0  0  0  0  0  0  0  0  0  0
    3.3804   -1.4784    0.0000 O    0  0  0  0  0  0  0  0  0  0  0  0
    7.1200   -0.0712    0.0000 O    0  0  0  0  0  0  0  0  0  0  0  0
    6.2896   -1.4968    0.0000 O    0  0  0  0  0  0  0  0  0  0  0  0
    3.0786   -0.3517    0.0000 N    0  0  0  0  0  0  0  0  0  0  0  0
    3.7929    0.8857    0.0000 N    0  0  0  0  0  0  0  0  0  0  0  0
    7.4176   -1.1991    0.0000 N    0  0  0  0  0  0  0  0  0  0  0  0
    3.0786    0.4732    0.0000 C    0  0  0  0  0  0  0  0  0  0  0  0
    4.5073   -0.3517    0.0000 C    0  0  0  0  0  0  0  0  0  0  0  0
    4.5073    0.4732    0.0000 C    0  0  0  0  0  0  0  0  0  0  0  0
    5.2446   -0.7926    0.0000 C    0  0  0  0  0  0  0  0  0  0  0  0
    5.9921   -0.3689    0.0000 C    0  0  0  0  0  0  0  0  0  0  0  0
    2.3641    0.8857    0.0000 C    0  0  0  0  0  0  0  0  0  0  0  0
    5.2446    0.9143    0.0000 C    0  0  0  0  0  0  0  0  0  0  0  0
    5.9921    0.4904    0.0000 C    0  0  0  0  0  0  0  0  0  0  0  0
  1 18  1  0  0  0  0
  2 18  1  0  0  0  0
  3 20  1  0  0  0  0
  4  6  2  0  0  0  0
  4  7  2  0  0  0  0
  4 10  1  0  0  0  0
  4 14  1  0  0  0  0
  5  8  2  0  0  0  0
  5  9  2  0  0  0  0
  5 12  1  0  0  0  0
  5 17  1  0  0  0  0
 10 13  1  0  0  0  0
 11 13  1  0  0  0  0
 11 15  1  0  0  0  0
 13 18  1  0  0  0  0
 14 15  1  0  0  0  0
 14 16  2  0  0  0  0
 15 19  2  0  0  0  0
 16 17  1  0  0  0  0
 17 20  2  0  0  0  0
 19 20  1  0  0  0  0
M  END
> <DRUGBANK_ID>
DB01021

> <DRUG_GROUPS>
approved

> <GENERIC_NAME>
Trichlormethiazide

> <BRANDS>
Anistadin; Carvacron; Diu-Hydrin; Diurese; Fluitran; Kubacron; Metahydrin; Naqua

> <CHEMICAL_FORMULA>
C8H8Cl3N3O4S2

> <MOLECULAR_WEIGHT>
380.656

> <EXACT_MASS>
378.90218026

> <IUPAC_NAME>
6-chloro-3-(dichloromethyl)-1,1-dioxo-3,4-dihydro-2H-1$l^{6},2,4-benzothiadiazine-7-sulfonamide

> <IUPAC_TRADITIONAL_NAME>
trichlormethiazide

> <INCHI_IDENTIFIER>
InChI=1S/C8H8Cl3N3O4S2/c9-3-1-4-6(2-5(3)19(12,15)16)20(17,18)14-8(13-4)7(10)11/h1-2,7-8,13-14H,(H2,12,15,16)

> <INCHI_KEY>
InChIKey=LMJSLTNSBFUCMU-UHFFFAOYSA-N

> <SMILES>
NS(=O)(=O)C1=C(Cl)C=C2NC(NS(=O)(=O)C2=C1)C(Cl)Cl

> <JCHEM_ACCEPTOR_COUNT>
5

> <JCHEM_DONOR_COUNT>
3

> <JCHEM_ACIDIC_PKA>
8.32

> <JCHEM_BASIC_PKA>
-4.1

> <JCHEM_PHYSIOLOGICAL_CHARGE>
0

> <ALOGPS_LOGP>
0.86

> <JCHEM_LOGP>
0.97

> <ALOGPS_LOGS>
-3

> <JCHEM_POLARIZABILITY>
31.97

> <JCHEM_POLAR_SURFACE_AREA>
118.36

> <JCHEM_REFRACTIVITY>
77.44

> <JCHEM_ROTATABLE_BOND_COUNT>
2

> <ALOGPS_SOLUBILITY>
4.15e-01 g/l __ 

$$$$
