
  Mrv0541 02231215482D          

 45 49  0  0  1  0            999 V2000
    2.0577   -6.1984    0.0000 O   0  0  0  0  0  0  0  0  0  0  0  0
    2.2974   -5.4090    0.0000 C   0  0  0  0  0  0  0  0  0  0  0  0
    3.1009   -5.2219    0.0000 C   0  0  1  0  0  0  0  0  0  0  0  0
    3.4219   -4.4619    0.0000 C   0  0  0  0  0  0  0  0  0  0  0  0
    4.2438   -4.5323    0.0000 C   0  0  2  0  0  0  0  0  0  0  0  0
    4.4309   -5.3358    0.0000 C   0  0  0  0  0  0  0  0  0  0  0  0
    3.7246   -5.7620    0.0000 O   0  0  0  0  0  0  0  0  0  0  0  0
    4.7839   -3.9086    0.0000 N   0  0  0  0  0  0  0  0  0  0  0  0
    5.5941   -4.0645    0.0000 C   0  0  0  0  0  0  0  0  0  0  0  0
    5.8641   -4.8441    0.0000 O   0  0  0  0  0  0  0  0  0  0  0  0
    6.1342   -3.4409    0.0000 C   0  0  1  0  0  0  0  0  0  0  0  0
    5.8641   -2.6614    0.0000 O   0  0  0  0  0  0  0  0  0  0  0  0
    5.0540   -2.5054    0.0000 C   0  0  0  0  0  0  0  0  0  0  0  0
    4.7839   -1.7259    0.0000 C   0  0  0  0  0  0  0  0  0  0  0  0
    3.9738   -1.5700    0.0000 C   0  0  0  0  0  0  0  0  0  0  0  0
    3.7038   -0.7904    0.0000 C   0  0  0  0  0  0  0  0  0  0  0  0
    4.2438   -0.1668    0.0000 C   0  0  0  0  0  0  0  0  0  0  0  0
    5.0540   -0.3227    0.0000 C   0  0  0  0  0  0  0  0  0  0  0  0
    5.3240   -1.1023    0.0000 C   0  0  0  0  0  0  0  0  0  0  0  0
    6.9443   -3.5968    0.0000 C   0  0  2  0  0  0  0  0  0  0  0  0
    7.2143   -4.3764    0.0000 O   0  0  0  0  0  0  0  0  0  0  0  0
    7.4844   -2.9732    0.0000 C   0  0  1  0  0  0  0  0  0  0  0  0
    7.2143   -2.1936    0.0000 O   0  0  0  0  0  0  0  0  0  0  0  0
    8.2945   -3.1291    0.0000 C   0  0  2  0  0  0  0  0  0  0  0  0
    8.5646   -3.9086    0.0000 O   0  0  0  0  0  0  0  0  0  0  0  0
    9.3747   -4.0645    0.0000 C   0  0  0  0  0  0  0  0  0  0  0  0
    9.6447   -4.8441    0.0000 C   0  0  0  0  0  0  0  0  0  0  0  0
   10.4549   -5.0000    0.0000 C   0  0  0  0  0  0  0  0  0  0  0  0
   10.7249   -5.7796    0.0000 C   0  0  0  0  0  0  0  0  0  0  0  0
   10.1848   -6.4032    0.0000 C   0  0  0  0  0  0  0  0  0  0  0  0
    9.3747   -6.2473    0.0000 C   0  0  0  0  0  0  0  0  0  0  0  0
    9.1046   -5.4677    0.0000 C   0  0  0  0  0  0  0  0  0  0  0  0
    8.8346   -2.5054    0.0000 C   0  0  0  0  0  0  0  0  0  0  0  0
    8.5646   -1.7259    0.0000 O   0  0  0  0  0  0  0  0  0  0  0  0
    9.6447   -2.6614    0.0000 N   0  0  0  0  0  0  0  0  0  0  0  0
   10.1848   -2.0377    0.0000 C   0  0  1  0  0  0  0  0  0  0  0  0
    9.9977   -1.2342    0.0000 C   0  0  2  0  0  0  0  0  0  0  0  0
    9.2377   -0.9133    0.0000 O   0  0  0  0  0  0  0  0  0  0  0  0
   10.7041   -0.8080    0.0000 C   0  0  0  0  0  0  0  0  0  0  0  0
   11.3278   -1.3481    0.0000 C   0  0  0  0  0  0  0  0  0  0  0  0
   12.1464   -1.2460    0.0000 C   0  0  0  0  0  0  0  0  0  0  0  0
   12.6441   -1.9040    0.0000 C   0  0  0  0  0  0  0  0  0  0  0  0
   12.3232   -2.6640    0.0000 C   0  0  0  0  0  0  0  0  0  0  0  0
   11.5045   -2.7660    0.0000 C   0  0  0  0  0  0  0  0  0  0  0  0
   11.0068   -2.1081    0.0000 C   0  0  0  0  0  0  0  0  0  0  0  0
  1  2  1  0  0  0  0
  3  2  1  1  0  0  0
  3  4  1  0  0  0  0
  4  5  1  0  0  0  0
  5  6  1  0  0  0  0
  6  7  1  0  0  0  0
  3  7  1  0  0  0  0
  5  8  1  1  0  0  0
  8  9  1  0  0  0  0
  9 10  2  0  0  0  0
  9 11  1  0  0  0  0
 11 12  1  1  0  0  0
 12 13  1  0  0  0  0
 13 14  1  0  0  0  0
 14 15  2  0  0  0  0
 15 16  1  0  0  0  0
 16 17  2  0  0  0  0
 17 18  1  0  0  0  0
 18 19  2  0  0  0  0
 14 19  1  0  0  0  0
 11 20  1  0  0  0  0
 20 21  1  1  0  0  0
 20 22  1  0  0  0  0
 22 23  1  1  0  0  0
 22 24  1  0  0  0  0
 24 25  1  1  0  0  0
 25 26  1  0  0  0  0
 26 27  1  0  0  0  0
 27 28  2  0  0  0  0
 28 29  1  0  0  0  0
 29 30  2  0  0  0  0
 30 31  1  0  0  0  0
 31 32  2  0  0  0  0
 27 32  1  0  0  0  0
 24 33  1  0  0  0  0
 33 34  2  0  0  0  0
 33 35  1  0  0  0  0
 36 35  1  1  0  0  0
 36 37  1  0  0  0  0
 37 38  1  6  0  0  0
 37 39  1  0  0  0  0
 39 40  1  0  0  0  0
 40 41  2  0  0  0  0
 41 42  1  0  0  0  0
 42 43  2  0  0  0  0
 43 44  1  0  0  0  0
 44 45  2  0  0  0  0
 36 45  1  0  0  0  0
 40 45  1  0  0  0  0
M  END
> <DRUGBANK_ID>
DB01887

> <DRUG_GROUPS>
experimental

> <GENERIC_NAME>
Inhibitor BEA369

> <CHEMICAL_FORMULA>
C34H40N2O9

> <MOLECULAR_WEIGHT>
620.6894

> <EXACT_MASS>
620.273380888

> <IUPAC_NAME>
(2S,3R,4R,5S)-2,5-bis(benzyloxy)-3,4-dihydroxy-N-[(1R,2R)-2-hydroxy-2,3-dihydro-1H-inden-1-yl]-N'-[(3R,5R)-5-(hydroxymethyl)oxolan-3-yl]hexanediamide

> <IUPAC_TRADITIONAL_NAME>
inhibitor BEA369

> <INCHI_IDENTIFIER>
InChI=1S/C34H40N2O9/c37-17-25-16-24(20-43-25)35-33(41)31(44-18-21-9-3-1-4-10-21)29(39)30(40)32(45-19-22-11-5-2-6-12-22)34(42)36-28-26-14-8-7-13-23(26)15-27(28)38/h1-14,24-25,27-32,37-40H,15-20H2,(H,35,41)(H,36,42)/t24-,25-,27-,28-,29-,30-,31+,32+/m1/s1

> <INCHI_KEY>
InChIKey=HLBCBFBFJWGTFR-BPFPTIRQSA-N

> <SMILES>
OC[C@H]1C[C@H](CO1)NC(=O)[C@@H](OCC1=CC=CC=C1)[C@H](O)[C@@H](O)[C@H](OCC1=CC=CC=C1)C(=O)N[C@H]1[C@H](O)CC2=CC=CC=C12

> <JCHEM_ACCEPTOR_COUNT>
9

> <JCHEM_DONOR_COUNT>
6

> <JCHEM_ACIDIC_PKA>
12.16

> <JCHEM_BASIC_PKA>
-2.9

> <JCHEM_PHYSIOLOGICAL_CHARGE>
0

> <ALOGPS_LOGP>
0.72

> <JCHEM_LOGP>
0.94

> <ALOGPS_LOGS>
-3.6

> <JCHEM_POLARIZABILITY>
65.66

> <JCHEM_POLAR_SURFACE_AREA>
166.81

> <JCHEM_REFRACTIVITY>
163.43

> <JCHEM_ROTATABLE_BOND_COUNT>
14

> <ALOGPS_SOLUBILITY>
1.48e-01 g/l __ 

$$$$
