1010
  Mrv0541 02231215102D          

 12 12  0  0  0  0            999 V2000
    1.6500   -1.6005    0.0000 O   0  0  0  0  0  0  0  0  0  0  0  0
    3.0791    0.8745    0.0000 N   0  3  0  0  0  0  0  0  0  0  0  0
    3.0791    1.6995    0.0000 C   0  0  0  0  0  0  0  0  0  0  0  0
    3.0791    0.0495    0.0000 C   0  0  0  0  0  0  0  0  0  0  0  0
    3.9041    0.8745    0.0000 C   0  0  0  0  0  0  0  0  0  0  0  0
    2.2540    0.8745    0.0000 C   0  0  0  0  0  0  0  0  0  0  0  0
    3.7935    2.1120    0.0000 C   0  0  0  0  0  0  0  0  0  0  0  0
    2.3645   -0.3630    0.0000 C   0  0  0  0  0  0  0  0  0  0  0  0
    3.7935   -0.3630    0.0000 C   0  0  0  0  0  0  0  0  0  0  0  0
    2.3645   -1.1880    0.0000 C   0  0  0  0  0  0  0  0  0  0  0  0
    3.7935   -1.1880    0.0000 C   0  0  0  0  0  0  0  0  0  0  0  0
    3.0791   -1.6005    0.0000 C   0  0  0  0  0  0  0  0  0  0  0  0
  1 10  1  0  0  0  0
  2  3  1  0  0  0  0
  2  4  1  0  0  0  0
  2  5  1  0  0  0  0
  2  6  1  0  0  0  0
  3  7  1  0  0  0  0
  4  8  2  0  0  0  0
  4  9  1  0  0  0  0
  8 10  1  0  0  0  0
  9 11  2  0  0  0  0
 10 12  2  0  0  0  0
 11 12  1  0  0  0  0
M  END
> <DRUGBANK_ID>
DB01010

> <DRUG_GROUPS>
approved

> <GENERIC_NAME>
Edrophonium

> <SYNONYMS>
3-hydroxy-N,N-dimethyl-N-ethylanilinium; EDR; Edrophonium Ion; Ethyl-(3-hydroxy-phenyl)-dimethyl-ammonium; N-ethyl-3-hydroxy-N,N-dimethylanilinium; N-ethyl-3-hydroxy-N,N-dimethylbenzenaminium

> <SALTS>
Edrophonium Chloride

> <BRANDS>
Antirex; Enlon; Enlon Plus; Reversol; Tensilon

> <CHEMICAL_FORMULA>
C10H16NO

> <MOLECULAR_WEIGHT>
166.2401

> <EXACT_MASS>
166.123189139

> <IUPAC_NAME>
N-ethyl-3-hydroxy-N,N-dimethylanilinium

> <IUPAC_TRADITIONAL_NAME>
edrophonium

> <INCHI_IDENTIFIER>
InChI=1S/C10H15NO/c1-4-11(2,3)9-6-5-7-10(12)8-9/h5-8H,4H2,1-3H3/p+1

> <INCHI_KEY>
InChIKey=VWLHWLSRQJQWRG-UHFFFAOYSA-O

> <SMILES>
CC[N+](C)(C)C1=CC(O)=CC=C1

> <JCHEM_ACCEPTOR_COUNT>
1

> <JCHEM_DONOR_COUNT>
1

> <JCHEM_ACIDIC_PKA>
8.59

> <JCHEM_BASIC_PKA>
-6.1

> <JCHEM_PHYSIOLOGICAL_CHARGE>
1

> <ALOGPS_LOGP>
-1.6

> <JCHEM_LOGP>
-1.9

> <ALOGPS_LOGS>
-3.6

> <JCHEM_POLARIZABILITY>
19.15

> <JCHEM_POLAR_SURFACE_AREA>
20.23

> <JCHEM_REFRACTIVITY>
62.41

> <JCHEM_ROTATABLE_BOND_COUNT>
2

> <ALOGPS_SOLUBILITY>
4.86e-02 g/l __ 

$$$$
