1236
  Mrv0541 02231215202D          

 12 11  0  0  0  0            999 V2000
    1.6500    1.2928    0.0000 F   0  0  0  0  0  0  0  0  0  0  0  0
    1.9520    0.1658    0.0000 F   0  0  0  0  0  0  0  0  0  0  0  0
    2.7770    1.5948    0.0000 F   0  0  0  0  0  0  0  0  0  0  0  0
    4.5080    1.2928    0.0000 F   0  0  0  0  0  0  0  0  0  0  0  0
    4.2060    0.1658    0.0000 F   0  0  0  0  0  0  0  0  0  0  0  0
    3.3810    1.5948    0.0000 F   0  0  0  0  0  0  0  0  0  0  0  0
    2.3645   -1.5948    0.0000 F   0  0  0  0  0  0  0  0  0  0  0  0
    3.0791   -0.3572    0.0000 O   0  0  0  0  0  0  0  0  0  0  0  0
    3.0791    0.4678    0.0000 C   0  0  0  0  0  0  0  0  0  0  0  0
    2.3645    0.8803    0.0000 C   0  0  0  0  0  0  0  0  0  0  0  0
    3.7935    0.8803    0.0000 C   0  0  0  0  0  0  0  0  0  0  0  0
    2.3645   -0.7697    0.0000 C   0  0  0  0  0  0  0  0  0  0  0  0
  1 10  1  0  0  0  0
  2 10  1  0  0  0  0
  3 10  1  0  0  0  0
  4 11  1  0  0  0  0
  5 11  1  0  0  0  0
  6 11  1  0  0  0  0
  7 12  1  0  0  0  0
  8  9  1  0  0  0  0
  8 12  1  0  0  0  0
  9 10  1  0  0  0  0
  9 11  1  0  0  0  0
M  END
> <DRUGBANK_ID>
DB01236

> <DRUG_GROUPS>
approved

> <GENERIC_NAME>
Sevoflurane

> <SYNONYMS>
Sevofluran; Sevoflurano; Sevofluranum

> <BRANDS>


> <CHEMICAL_FORMULA>
C4H3F7O

> <MOLECULAR_WEIGHT>
200.0548

> <EXACT_MASS>
200.007212153

> <IUPAC_NAME>
1,1,1,3,3,3-hexafluoro-2-(fluoromethoxy)propane

> <IUPAC_TRADITIONAL_NAME>
sevoflurane

> <INCHI_IDENTIFIER>
InChI=1S/C4H3F7O/c5-1-12-2(3(6,7)8)4(9,10)11/h2H,1H2

> <INCHI_KEY>
InChIKey=DFEYYRMXOJXZRJ-UHFFFAOYSA-N

> <SMILES>
FCOC(C(F)(F)F)C(F)(F)F

> <JCHEM_ACCEPTOR_COUNT>
1

> <JCHEM_DONOR_COUNT>
0

> <JCHEM_ACIDIC_PKA>
15.07

> <JCHEM_BASIC_PKA>
-4.5

> <JCHEM_PHYSIOLOGICAL_CHARGE>
0

> <ALOGPS_LOGP>
2.44

> <JCHEM_LOGP>
2.27

> <ALOGPS_LOGS>
-2.1

> <JCHEM_POLARIZABILITY>
9.83

> <JCHEM_POLAR_SURFACE_AREA>
9.23

> <JCHEM_REFRACTIVITY>
23.3

> <JCHEM_ROTATABLE_BOND_COUNT>
4

> <ALOGPS_SOLUBILITY>
1.48e+00 g/l __ 

$$$$
