
  Mrv0541 02231215512D          

  8  8  0  0  0  0            999 V2000
    2.1434   -0.4125    0.0000 O    0  0  0  0  0  0  0  0  0  0  0  0
    1.4289    0.0000    0.0000 C    0  0  0  0  0  0  0  0  0  0  0  0
    0.7145   -0.4125    0.0000 C    0  0  0  0  0  0  0  0  0  0  0  0
    0.0000    0.0000    0.0000 C    0  0  0  0  0  0  0  0  0  0  0  0
    0.0000    0.8250    0.0000 C    0  0  0  0  0  0  0  0  0  0  0  0
    0.7145    1.2375    0.0000 C    0  0  0  0  0  0  0  0  0  0  0  0
    0.7145    2.0625    0.0000 Cl   0  0  0  0  0  0  0  0  0  0  0  0
    1.4289    0.8250    0.0000 C    0  0  0  0  0  0  0  0  0  0  0  0
  1  2  1  0  0  0  0
  2  3  2  0  0  0  0
  3  4  1  0  0  0  0
  4  5  2  0  0  0  0
  5  6  1  0  0  0  0
  6  7  1  0  0  0  0
  6  8  2  0  0  0  0
  2  8  1  0  0  0  0
M  END
> <DRUGBANK_ID>
DB01957

> <DRUG_GROUPS>
experimental

> <GENERIC_NAME>
3-Chlorophenol

> <CHEMICAL_FORMULA>
C6H5ClO

> <MOLECULAR_WEIGHT>
128.556

> <EXACT_MASS>
128.002892489

> <IUPAC_NAME>
3-chlorophenol

> <IUPAC_TRADITIONAL_NAME>
3-chlorophenol

> <INCHI_IDENTIFIER>
InChI=1S/C6H5ClO/c7-5-2-1-3-6(8)4-5/h1-4,8H

> <INCHI_KEY>
InChIKey=HORNXRXVQWOLPJ-UHFFFAOYSA-N

> <SMILES>
OC1=CC=CC(Cl)=C1

> <JCHEM_ACCEPTOR_COUNT>
1

> <JCHEM_DONOR_COUNT>
1

> <JCHEM_ACIDIC_PKA>
8.79

> <JCHEM_BASIC_PKA>
-6.3

> <JCHEM_PHYSIOLOGICAL_CHARGE>
0

> <ALOGPS_LOGP>
2.35

> <JCHEM_LOGP>
2.27

> <ALOGPS_LOGS>
-0.94

> <JCHEM_POLARIZABILITY>
12

> <JCHEM_POLAR_SURFACE_AREA>
20.23

> <JCHEM_REFRACTIVITY>
32.84

> <JCHEM_ROTATABLE_BOND_COUNT>
0

> <ALOGPS_SOLUBILITY>
1.46e+01 g/l __ 

$$$$
