1365
  Mrv0541 02231215242D          

 12 12  0  0  0  0            999 V2000
    3.7935    1.2375    0.0000 N   0  0  0  0  0  0  0  0  0  0  0  0
    3.0791    0.8250    0.0000 C   0  0  0  0  0  0  0  0  0  0  0  0
    2.3645    0.4125    0.0000 C   0  0  0  0  0  0  0  0  0  0  0  0
    2.6665    1.5395    0.0000 C   0  0  0  0  0  0  0  0  0  0  0  0
    3.4916    0.1106    0.0000 C   0  0  0  0  0  0  0  0  0  0  0  0
    2.3645   -0.4125    0.0000 C   0  0  0  0  0  0  0  0  0  0  0  0
    3.7935    2.0625    0.0000 C   0  0  0  0  0  0  0  0  0  0  0  0
    3.0791   -0.8250    0.0000 C   0  0  0  0  0  0  0  0  0  0  0  0
    1.6500   -0.8250    0.0000 C   0  0  0  0  0  0  0  0  0  0  0  0
    3.0791   -1.6500    0.0000 C   0  0  0  0  0  0  0  0  0  0  0  0
    1.6500   -1.6500    0.0000 C   0  0  0  0  0  0  0  0  0  0  0  0
    2.3645   -2.0625    0.0000 C   0  0  0  0  0  0  0  0  0  0  0  0
  1  2  1  0  0  0  0
  1  7  1  0  0  0  0
  2  3  1  0  0  0  0
  2  4  1  0  0  0  0
  2  5  1  0  0  0  0
  3  6  1  0  0  0  0
  6  8  2  0  0  0  0
  6  9  1  0  0  0  0
  8 10  1  0  0  0  0
  9 11  2  0  0  0  0
 10 12  2  0  0  0  0
 11 12  1  0  0  0  0
M  END
> <DRUGBANK_ID>
DB01365

> <DRUG_GROUPS>
approved

> <GENERIC_NAME>
Mephentermine

> <SYNONYMS>


> <BRANDS>


> <CHEMICAL_FORMULA>
C11H17N

> <MOLECULAR_WEIGHT>
163.2594

> <EXACT_MASS>
163.136099549

> <IUPAC_NAME>
methyl(2-methyl-1-phenylpropan-2-yl)amine

> <IUPAC_TRADITIONAL_NAME>
mephentermine

> <INCHI_IDENTIFIER>
InChI=1S/C11H17N/c1-11(2,12-3)9-10-7-5-4-6-8-10/h4-8,12H,9H2,1-3H3

> <INCHI_KEY>
InChIKey=RXQCGGRTAILOIN-UHFFFAOYSA-N

> <SMILES>
CNC(C)(C)CC1=CC=CC=C1

> <JCHEM_ACCEPTOR_COUNT>
1

> <JCHEM_DONOR_COUNT>
1

> <JCHEM_BASIC_PKA>
10.3

> <JCHEM_PHYSIOLOGICAL_CHARGE>
1

> <ALOGPS_LOGP>
2.54

> <JCHEM_LOGP>
2.52

> <ALOGPS_LOGS>
-2.5

> <JCHEM_POLARIZABILITY>
19.79

> <JCHEM_POLAR_SURFACE_AREA>
12.03

> <JCHEM_REFRACTIVITY>
53.12

> <JCHEM_ROTATABLE_BOND_COUNT>
3

> <ALOGPS_SOLUBILITY>
4.57e-01 g/l __ 

$$$$
