
  Mrv0541 02231215442D          

  7  6  0  0  0  0            999 V2000
    2.8875   -0.7145    0.0000 C   0  0  0  0  0  0  0  0  0  0  0  0
    2.0625   -0.7145    0.0000 N   0  3  0  0  0  0  0  0  0  0  0  0
    2.0625    0.1105    0.0000 C   0  0  0  0  0  0  0  0  0  0  0  0
    2.0625   -1.5395    0.0000 C   0  0  0  0  0  0  0  0  0  0  0  0
    1.2375   -0.7145    0.0000 C   0  0  0  0  0  0  0  0  0  0  0  0
    0.8250    0.0000    0.0000 C   0  0  0  0  0  0  0  0  0  0  0  0
    0.0000    0.0000    0.0000 S   0  0  0  0  0  0  0  0  0  0  0  0
  1  2  1  0  0  0  0
  2  3  1  0  0  0  0
  2  4  1  0  0  0  0
  2  5  1  0  0  0  0
  5  6  1  0  0  0  0
  6  7  1  0  0  0  0
M  END
> <DRUGBANK_ID>
DB01803

> <DRUG_GROUPS>
experimental

> <GENERIC_NAME>
2-(Trimethylammonium)Ethyl Thiol

> <CHEMICAL_FORMULA>
C5H14NS

> <MOLECULAR_WEIGHT>
120.236

> <EXACT_MASS>
120.084695143

> <IUPAC_NAME>
trimethyl(2-sulfanylethyl)azanium

> <IUPAC_TRADITIONAL_NAME>
trimethyl(2-sulfanylethyl)azanium

> <INCHI_IDENTIFIER>
InChI=1S/C5H13NS/c1-6(2,3)4-5-7/h4-5H2,1-3H3/p+1

> <INCHI_KEY>
InChIKey=VFUGTBZQGUVGEX-UHFFFAOYSA-O

> <SMILES>
C[N+](C)(C)CCS

> <JCHEM_ACCEPTOR_COUNT>
0

> <JCHEM_DONOR_COUNT>
1

> <JCHEM_ACIDIC_PKA>
9.7

> <JCHEM_BASIC_PKA>
-9.8

> <JCHEM_PHYSIOLOGICAL_CHARGE>
1

> <ALOGPS_LOGP>
-3.1

> <JCHEM_LOGP>
-3.6

> <ALOGPS_LOGS>
-3.5

> <JCHEM_POLARIZABILITY>
14.66

> <JCHEM_POLAR_SURFACE_AREA>
0

> <JCHEM_REFRACTIVITY>
48.38

> <JCHEM_ROTATABLE_BOND_COUNT>
2

> <ALOGPS_SOLUBILITY>
5.11e-02 g/l __ 

$$$$
