
  Mrv0541 02231215532D          

 32 35  0  0  1  0            999 V2000
    6.9960   -2.0886    0.0000 C   0  0  0  0  0  0  0  0  0  0  0  0
    7.7104   -2.5011    0.0000 C   0  0  0  0  0  0  0  0  0  0  0  0
    7.7104   -3.3261    0.0000 C   0  0  0  0  0  0  0  0  0  0  0  0
    8.4249   -2.0886    0.0000 C   0  0  0  0  0  0  0  0  0  0  0  0
    9.1394   -2.5011    0.0000 C   0  0  0  0  0  0  0  0  0  0  0  0
    9.8538   -2.0886    0.0000 C   0  0  0  0  0  0  0  0  0  0  0  0
   10.5683   -2.5011    0.0000 C   0  0  1  0  0  0  0  0  0  0  0  0
   10.5683   -3.3261    0.0000 C   0  0  0  0  0  0  0  0  0  0  0  0
   11.2828   -2.0886    0.0000 C   0  0  1  0  0  0  0  0  0  0  0  0
   11.3690   -1.2682    0.0000 C   0  0  0  0  0  0  0  0  0  0  0  0
   12.1760   -1.0966    0.0000 C   0  0  0  0  0  0  0  0  0  0  0  0
   12.5885   -1.8111    0.0000 C   0  0  1  0  0  0  0  0  0  0  0  0
   13.3955   -1.9826    0.0000 C   0  0  2  0  0  0  0  0  0  0  0  0
   13.9475   -1.3695    0.0000 C   0  0  0  0  0  0  0  0  0  0  0  0
   14.7545   -1.5411    0.0000 C   0  0  0  0  0  0  0  0  0  0  0  0
   15.0094   -2.3257    0.0000 C   0  0  0  0  0  0  0  0  0  0  0  0
   15.8164   -2.4972    0.0000 C   0  0  0  0  0  0  0  0  0  0  0  0
   16.0713   -3.2818    0.0000 C   0  0  1  0  0  0  0  0  0  0  0  0
   15.5193   -3.8949    0.0000 C   0  0  0  0  0  0  0  0  0  0  0  0
   14.7123   -3.7234    0.0000 C   0  0  0  0  0  0  0  0  0  0  0  0
   14.4574   -2.9388    0.0000 C   0  0  2  0  0  0  0  0  0  0  0  0
   13.9053   -3.5519    0.0000 C   0  0  0  0  0  0  0  0  0  0  0  0
   13.6504   -2.7673    0.0000 C   0  0  2  0  0  0  0  0  0  0  0  0
   13.0984   -3.3803    0.0000 C   0  0  0  0  0  0  0  0  0  0  0  0
   12.2914   -3.2088    0.0000 C   0  0  0  0  0  0  0  0  0  0  0  0
   12.0365   -2.4242    0.0000 C   0  0  2  0  0  0  0  0  0  0  0  0
   11.4234   -2.9762    0.0000 C   0  0  0  0  0  0  0  0  0  0  0  0
   16.8783   -3.4534    0.0000 O   0  0  0  0  0  0  0  0  0  0  0  0
   17.4303   -2.8403    0.0000 S   0  0  0  0  0  0  0  0  0  0  0  0
   17.9824   -2.2272    0.0000 O   0  0  0  0  0  0  0  0  0  0  0  0
   18.0434   -3.3923    0.0000 O   0  0  0  0  0  0  0  0  0  0  0  0
   16.8172   -2.2882    0.0000 O   0  0  0  0  0  0  0  0  0  0  0  0
  1  2  1  0  0  0  0
  2  3  1  0  0  0  0
  2  4  1  0  0  0  0
  4  5  1  0  0  0  0
  5  6  1  0  0  0  0
  6  7  1  0  0  0  0
  7  8  1  6  0  0  0
  9  7  1  1  0  0  0
  9 10  1  0  0  0  0
 10 11  1  0  0  0  0
 12 11  1  1  0  0  0
 12 13  1  0  0  0  0
 13 14  1  6  0  0  0
 14 15  1  0  0  0  0
 15 16  2  0  0  0  0
 16 17  1  0  0  0  0
 17 18  1  0  0  0  0
 18 19  1  0  0  0  0
 19 20  1  0  0  0  0
 20 21  1  0  0  0  0
 16 21  1  0  0  0  0
 21 22  1  6  0  0  0
 21 23  1  0  0  0  0
 13 23  1  0  0  0  0
 23 24  1  6  0  0  0
 24 25  1  0  0  0  0
 25 26  1  0  0  0  0
  9 26  1  0  0  0  0
 12 26  1  0  0  0  0
 26 27  1  1  0  0  0
 18 28  1  6  0  0  0
 28 29  1  0  0  0  0
 29 30  1  0  0  0  0
 29 31  2  0  0  0  0
 29 32  2  0  0  0  0
M  END
> <DRUGBANK_ID>
DB01990

> <DRUG_GROUPS>
experimental

> <GENERIC_NAME>
Cholesterol-Sulfate

> <CHEMICAL_FORMULA>
C27H46O4S

> <MOLECULAR_WEIGHT>
466.717

> <EXACT_MASS>
466.31168065

> <IUPAC_NAME>
[(1R,2S,5R,10S,11S,14R,15R)-2,15-dimethyl-14-[(2R)-6-methylheptan-2-yl]tetracyclo[8.7.0.0^{2,7}.0^{11,15}]heptadec-7-en-5-yl]oxidanesulfonic acid

> <IUPAC_TRADITIONAL_NAME>
cholesterol-sulfate

> <INCHI_IDENTIFIER>
InChI=1S/C27H46O4S/c1-18(2)7-6-8-19(3)23-11-12-24-22-10-9-20-17-21(31-32(28,29)30)13-15-26(20,4)25(22)14-16-27(23,24)5/h9,18-19,21-25H,6-8,10-17H2,1-5H3,(H,28,29,30)/t19-,21-,22+,23-,24+,25-,26-,27-/m1/s1

> <INCHI_KEY>
InChIKey=BHYOQNUELFTYRT-MFYRMPRMSA-N

> <SMILES>
CC(C)CCC[C@@H](C)[C@H]1CC[C@H]2[C@@H]3CC=C4C[C@@H](CC[C@@]4(C)[C@@H]3CC[C@]12C)OS(O)(=O)=O

> <JCHEM_ACCEPTOR_COUNT>
3

> <JCHEM_DONOR_COUNT>
1

> <JCHEM_ACIDIC_PKA>
-1.4

> <JCHEM_PHYSIOLOGICAL_CHARGE>
-1

> <ALOGPS_LOGP>
3.27

> <JCHEM_LOGP>
7.17

> <ALOGPS_LOGS>
-6.8

> <JCHEM_POLARIZABILITY>
55.98

> <JCHEM_POLAR_SURFACE_AREA>
63.6

> <JCHEM_REFRACTIVITY>
130.61

> <JCHEM_ROTATABLE_BOND_COUNT>
7

> <ALOGPS_SOLUBILITY>
7.48e-05 g/l __ 

$$$$
