1623
  Mrv0541 02231215362D          

 30 33  0  0  0  0            999 V2000
    6.7619   -0.9970    0.0000 S   0  0  0  0  0  0  0  0  0  0  0  0
    3.8495   -2.6670    0.0000 S   0  0  0  0  0  0  0  0  0  0  0  0
    6.3466   -0.2841    0.0000 O   0  0  0  0  0  0  0  0  0  0  0  0
    7.1771   -1.7099    0.0000 O   0  0  0  0  0  0  0  0  0  0  0  0
    5.2784    1.4580    0.0000 N   0  0  0  0  0  0  0  0  0  0  0  0
    6.7073    2.2830    0.0000 N   0  0  0  0  0  0  0  0  0  0  0  0
    7.4747   -0.5818    0.0000 N   0  0  0  0  0  0  0  0  0  0  0  0
    5.9929    1.0455    0.0000 C   0  0  0  0  0  0  0  0  0  0  0  0
    5.2784    2.2830    0.0000 C   0  0  0  0  0  0  0  0  0  0  0  0
    6.7073    1.4580    0.0000 C   0  0  0  0  0  0  0  0  0  0  0  0
    5.9929    2.6955    0.0000 C   0  0  0  0  0  0  0  0  0  0  0  0
    4.5640    1.0455    0.0000 C   0  0  0  0  0  0  0  0  0  0  0  0
    4.5640    0.2205    0.0000 C   0  0  0  0  0  0  0  0  0  0  0  0
    7.4219    2.6955    0.0000 C   0  0  0  0  0  0  0  0  0  0  0  0
    3.8495   -0.1920    0.0000 C   0  0  0  0  0  0  0  0  0  0  0  0
    3.8495   -1.0170    0.0000 C   0  0  0  0  0  0  0  0  0  0  0  0
    4.5640   -1.4295    0.0000 C   0  0  0  0  0  0  0  0  0  0  0  0
    3.1350   -1.4295    0.0000 C   0  0  0  0  0  0  0  0  0  0  0  0
    4.5640   -2.2545    0.0000 C   0  0  0  0  0  0  0  0  0  0  0  0
    5.3015   -0.9884    0.0000 C   0  0  0  0  0  0  0  0  0  0  0  0
    3.1350   -2.2545    0.0000 C   0  0  0  0  0  0  0  0  0  0  0  0
    6.0490   -1.4123    0.0000 C   0  0  0  0  0  0  0  0  0  0  0  0
    5.3015   -2.6955    0.0000 C   0  0  0  0  0  0  0  0  0  0  0  0
    2.3975   -0.9884    0.0000 C   0  0  0  0  0  0  0  0  0  0  0  0
    6.0490   -2.2716    0.0000 C   0  0  0  0  0  0  0  0  0  0  0  0
    2.3975   -2.6955    0.0000 C   0  0  0  0  0  0  0  0  0  0  0  0
    1.6500   -1.4123    0.0000 C   0  0  0  0  0  0  0  0  0  0  0  0
    1.6500   -2.2716    0.0000 C   0  0  0  0  0  0  0  0  0  0  0  0
    8.1908   -0.9915    0.0000 C   0  0  0  0  0  0  0  0  0  0  0  0
    7.4715    0.2432    0.0000 C   0  0  0  0  0  0  0  0  0  0  0  0
  1  3  2  0  0  0  0
  1  4  2  0  0  0  0
  1  7  1  0  0  0  0
  1 22  1  0  0  0  0
  2 19  1  0  0  0  0
  2 21  1  0  0  0  0
  5  8  1  0  0  0  0
  5  9  1  0  0  0  0
  5 12  1  0  0  0  0
  6 10  1  0  0  0  0
  6 11  1  0  0  0  0
  6 14  1  0  0  0  0
  7 29  1  0  0  0  0
  7 30  1  0  0  0  0
  8 10  1  0  0  0  0
  9 11  1  0  0  0  0
 12 13  1  0  0  0  0
 13 15  1  0  0  0  0
 15 16  2  0  0  0  0
 16 17  1  0  0  0  0
 16 18  1  0  0  0  0
 17 19  2  0  0  0  0
 17 20  1  0  0  0  0
 18 21  1  0  0  0  0
 18 24  2  0  0  0  0
 19 23  1  0  0  0  0
 20 22  2  0  0  0  0
 21 26  2  0  0  0  0
 22 25  1  0  0  0  0
 23 25  2  0  0  0  0
 24 27  1  0  0  0  0
 26 28  1  0  0  0  0
 27 28  2  0  0  0  0
M  END
> <DRUGBANK_ID>
DB01623

> <DRUG_GROUPS>
approved

> <GENERIC_NAME>
Thiothixene

> <SYNONYMS>
Tiotixeno; Tiotixenum

> <BRANDS>


> <CHEMICAL_FORMULA>
C23H29N3O2S2

> <MOLECULAR_WEIGHT>
443.625

> <EXACT_MASS>
443.170118567

> <IUPAC_NAME>
(9Z)-N,N-dimethyl-9-[3-(4-methylpiperazin-1-yl)propylidene]-9H-thioxanthene-2-sulfonamide

> <IUPAC_TRADITIONAL_NAME>
thiothixene

> <INCHI_IDENTIFIER>
InChI=1S/C23H29N3O2S2/c1-24(2)30(27,28)18-10-11-23-21(17-18)19(20-7-4-5-9-22(20)29-23)8-6-12-26-15-13-25(3)14-16-26/h4-5,7-11,17H,6,12-16H2,1-3H3/b19-8-

> <INCHI_KEY>
InChIKey=GFBKORZTTCHDGY-UWVJOHFNSA-N

> <SMILES>
CN(C)S(=O)(=O)C1=CC2=C(SC3=CC=CC=C3\C2=C\CCN2CCN(C)CC2)C=C1

> <JCHEM_ACCEPTOR_COUNT>
4

> <JCHEM_DONOR_COUNT>
0

> <JCHEM_BASIC_PKA>
8.56

> <JCHEM_PHYSIOLOGICAL_CHARGE>
1

> <ALOGPS_LOGP>
4.01

> <JCHEM_LOGP>
3.36

> <ALOGPS_LOGS>
-4.5

> <JCHEM_POLARIZABILITY>
50.35

> <JCHEM_POLAR_SURFACE_AREA>
43.86

> <JCHEM_REFRACTIVITY>
137.85

> <JCHEM_ROTATABLE_BOND_COUNT>
4

> <ALOGPS_SOLUBILITY>
1.39e-02 g/l __ 

$$$$
