1186
  Mrv0541 02231215182D          

 24 27  0  0  1  0            999 V2000
    2.3661    2.3349    0.0000 S   0  0  0  0  0  0  0  0  0  0  0  0
    4.5705    1.0944    0.0000 N   0  0  0  0  0  0  0  0  0  0  0  0
    5.5455   -2.3016    0.0000 N   0  0  0  0  0  0  0  0  0  0  0  0
    3.8428   -0.1774    0.0000 C   0  0  2  0  0  0  0  0  0  0  0  0
    4.5572    0.2351    0.0000 C   0  0  1  0  0  0  0  0  0  0  0  0
    3.0920    0.2408    0.0000 C   0  0  0  0  0  0  0  0  0  0  0  0
    3.0853    1.1002    0.0000 C   0  0  2  0  0  0  0  0  0  0  0  0
    3.8296    1.5298    0.0000 C   0  0  0  0  0  0  0  0  0  0  0  0
    5.2717   -0.1774    0.0000 C   0  0  0  0  0  0  0  0  0  0  0  0
    3.8428   -1.0024    0.0000 C   0  0  0  0  0  0  0  0  0  0  0  0
    5.2717   -1.0024    0.0000 C   0  0  0  0  0  0  0  0  0  0  0  0
    4.5572   -1.4149    0.0000 C   0  0  0  0  0  0  0  0  0  0  0  0
    5.2897    1.4986    0.0000 C   0  0  0  0  0  0  0  0  0  0  0  0
    2.3693    1.5099    0.0000 C   0  0  0  0  0  0  0  0  0  0  0  0
    4.5705   -2.2742    0.0000 C   0  0  0  0  0  0  0  0  0  0  0  0
    3.0920   -1.4205    0.0000 C   0  0  0  0  0  0  0  0  0  0  0  0
    5.8797   -1.5528    0.0000 C   0  0  0  0  0  0  0  0  0  0  0  0
    5.2993    2.3236    0.0000 C   0  0  0  0  0  0  0  0  0  0  0  0
    3.8296   -2.7095    0.0000 C   0  0  0  0  0  0  0  0  0  0  0  0
    3.0853   -2.2799    0.0000 C   0  0  0  0  0  0  0  0  0  0  0  0
    6.0184    2.7278    0.0000 C   0  0  0  0  0  0  0  0  0  0  0  0
    1.6500    2.7447    0.0000 C   0  0  0  0  0  0  0  0  0  0  0  0
    3.2738   -0.5118    0.0000 H   0  0  0  0  0  0  0  0  0  0  0  0
    5.1314    0.5608    0.0000 H   0  0  0  0  0  0  0  0  0  0  0  0
  1 14  1  0  0  0  0
  1 22  1  0  0  0  0
  2  5  1  0  0  0  0
  2  8  1  0  0  0  0
  2 13  1  0  0  0  0
  3 15  1  0  0  0  0
  3 17  1  0  0  0  0
  4  5  1  0  0  0  0
  4  6  1  0  0  0  0
  4 10  1  0  0  0  0
  4 23  1  6  0  0  0
  5  9  1  0  0  0  0
  5 24  1  1  0  0  0
  6  7  1  0  0  0  0
  7  8  1  0  0  0  0
  7 14  1  1  0  0  0
  9 11  1  0  0  0  0
 10 12  2  0  0  0  0
 10 16  1  0  0  0  0
 11 12  1  0  0  0  0
 11 17  2  0  0  0  0
 12 15  1  0  0  0  0
 13 18  1  0  0  0  0
 15 19  2  0  0  0  0
 16 20  2  0  0  0  0
 18 21  1  0  0  0  0
 19 20  1  0  0  0  0
M  END
> <DRUGBANK_ID>
DB01186

> <DRUG_GROUPS>
approved; withdrawn

> <GENERIC_NAME>
Pergolide

> <SYNONYMS>
Pergolida; Pergolidum

> <BRANDS>
Permax

> <CHEMICAL_FORMULA>
C19H26N2S

> <MOLECULAR_WEIGHT>
314.488

> <EXACT_MASS>
314.181669532

> <IUPAC_NAME>
(2R,4R,7R)-4-[(methylsulfanyl)methyl]-6-propyl-6,11-diazatetracyclo[7.6.1.0^{2,7}.0^{12,16}]hexadeca-1(16),9,12,14-tetraene

> <IUPAC_TRADITIONAL_NAME>
pergolide

> <INCHI_IDENTIFIER>
InChI=1S/C19H26N2S/c1-3-7-21-11-13(12-22-2)8-16-15-5-4-6-17-19(15)14(10-20-17)9-18(16)21/h4-6,10,13,16,18,20H,3,7-9,11-12H2,1-2H3/t13-,16-,18-/m1/s1

> <INCHI_KEY>
InChIKey=YEHCICAEULNIGD-MZMPZRCHSA-N

> <SMILES>
[H][C@@]12CC3=CNC4=CC=CC(=C34)[C@@]1([H])C[C@@H](CSC)CN2CCC

> <JCHEM_ACCEPTOR_COUNT>
1

> <JCHEM_DONOR_COUNT>
1

> <JCHEM_ACIDIC_PKA>
17.35

> <JCHEM_BASIC_PKA>
9.49

> <JCHEM_PHYSIOLOGICAL_CHARGE>
1

> <ALOGPS_LOGP>
4.17

> <JCHEM_LOGP>
4.23

> <ALOGPS_LOGS>
-5.7

> <JCHEM_POLARIZABILITY>
38.4

> <JCHEM_POLAR_SURFACE_AREA>
19.03

> <JCHEM_REFRACTIVITY>
97.02

> <JCHEM_ROTATABLE_BOND_COUNT>
4

> <ALOGPS_SOLUBILITY>
5.84e-04 g/l __ 

$$$$
