
  Mrv0541 02231215502D          

 27 30  0  0  0  0            999 V2000
   -1.4289   -1.6500    0.0000 C   0  0  0  0  0  0  0  0  0  0  0  0
   -0.7145   -1.2375    0.0000 C   0  0  0  0  0  0  0  0  0  0  0  0
    0.0000   -1.6500    0.0000 C   0  0  0  0  0  0  0  0  0  0  0  0
    0.7145   -1.2375    0.0000 C   0  0  0  0  0  0  0  0  0  0  0  0
    0.7145   -0.4125    0.0000 C   0  0  0  0  0  0  0  0  0  0  0  0
    0.0000    0.0000    0.0000 C   0  0  0  0  0  0  0  0  0  0  0  0
   -0.7145   -0.4125    0.0000 C   0  0  0  0  0  0  0  0  0  0  0  0
   -1.4289    0.0000    0.0000 C   0  0  0  0  0  0  0  0  0  0  0  0
   -1.9592    0.6320    0.0000 C   0  0  0  0  0  0  0  0  0  0  0  0
   -1.1468    0.7752    0.0000 C   0  0  0  0  0  0  0  0  0  0  0  0
   -1.9592   -0.6320    0.0000 C   0  0  0  0  0  0  0  0  0  0  0  0
   -1.6771   -1.4072    0.0000 C   0  0  0  0  0  0  0  0  0  0  0  0
   -2.2074   -2.0392    0.0000 C   0  0  0  0  0  0  0  0  0  0  0  0
   -3.0198   -1.8960    0.0000 C   0  0  0  0  0  0  0  0  0  0  0  0
   -3.3020   -1.1207    0.0000 C   0  0  0  0  0  0  0  0  0  0  0  0
   -2.7717   -0.4887    0.0000 N   0  0  0  0  0  0  0  0  0  0  0  0
   -3.5501   -2.5279    0.0000 C   0  0  0  0  0  0  0  0  0  0  0  0
   -4.3626   -2.3847    0.0000 O   0  0  0  0  0  0  0  0  0  0  0  0
   -3.2680   -3.3032    0.0000 O   0  0  0  0  0  0  0  0  0  0  0  0
    1.4289    0.0000    0.0000 C   0  0  0  0  0  0  0  0  0  0  0  0
    0.8986    0.6320    0.0000 C   0  0  0  0  0  0  0  0  0  0  0  0
    1.9592    0.6320    0.0000 C   0  0  0  0  0  0  0  0  0  0  0  0
    2.1434   -0.4125    0.0000 C   0  0  0  0  0  0  0  0  0  0  0  0
    2.1434   -1.2375    0.0000 C   0  0  0  0  0  0  0  0  0  0  0  0
    1.4289   -1.6500    0.0000 C   0  0  0  0  0  0  0  0  0  0  0  0
    1.8163   -2.3784    0.0000 C   0  0  0  0  0  0  0  0  0  0  0  0
    1.0416   -2.3784    0.0000 C   0  0  0  0  0  0  0  0  0  0  0  0
  1  2  1  0  0  0  0
  2  3  2  0  0  0  0
  3  4  1  0  0  0  0
  4  5  2  0  0  0  0
  5  6  1  0  0  0  0
  6  7  2  0  0  0  0
  2  7  1  0  0  0  0
  7  8  1  0  0  0  0
  8  9  1  0  0  0  0
  9 10  1  0  0  0  0
  8 10  1  0  0  0  0
  8 11  1  0  0  0  0
 11 12  2  0  0  0  0
 12 13  1  0  0  0  0
 13 14  2  0  0  0  0
 14 15  1  0  0  0  0
 15 16  2  0  0  0  0
 11 16  1  0  0  0  0
 14 17  1  0  0  0  0
 17 18  1  0  0  0  0
 17 19  2  0  0  0  0
  5 20  1  0  0  0  0
 20 21  1  0  0  0  0
 20 22  1  0  0  0  0
 20 23  1  0  0  0  0
 23 24  1  0  0  0  0
 24 25  1  0  0  0  0
  4 25  1  0  0  0  0
 25 26  1  0  0  0  0
 25 27  1  0  0  0  0
M  END
> <DRUGBANK_ID>
DB01941

> <DRUG_GROUPS>
experimental

> <GENERIC_NAME>
6-[1-(3,5,5,8,8-Pentamethyl-5,6,7,8-Tetrahydronaphthalen-2-Yl)Cyclopropyl]Pyridine-3-Carboxylic Acid

> <CHEMICAL_FORMULA>
C24H29NO2

> <MOLECULAR_WEIGHT>
363.4926

> <EXACT_MASS>
363.219829177

> <IUPAC_NAME>
6-[1-(3,5,5,8,8-pentamethyl-5,6,7,8-tetrahydronaphthalen-2-yl)cyclopropyl]pyridine-3-carboxylic acid

> <IUPAC_TRADITIONAL_NAME>
6-[1-(3,5,5,8,8-pentamethyl-6,7-dihydronaphthalen-2-yl)cyclopropyl]pyridine-3-carboxylic acid

> <INCHI_IDENTIFIER>
InChI=1S/C24H29NO2/c1-15-12-18-19(23(4,5)9-8-22(18,2)3)13-17(15)24(10-11-24)20-7-6-16(14-25-20)21(26)27/h6-7,12-14H,8-11H2,1-5H3,(H,26,27)

> <INCHI_KEY>
InChIKey=SLXTWXQUEZSSTJ-UHFFFAOYSA-N

> <SMILES>
CC1=CC2=C(C=C1C1(CC1)C1=CC=C(C=N1)C(O)=O)C(C)(C)CCC2(C)C

> <JCHEM_ACCEPTOR_COUNT>
3

> <JCHEM_DONOR_COUNT>
1

> <JCHEM_ACIDIC_PKA>
3.93

> <JCHEM_BASIC_PKA>
2.53

> <JCHEM_PHYSIOLOGICAL_CHARGE>
-1

> <ALOGPS_LOGP>
6.15

> <JCHEM_LOGP>
5.82

> <ALOGPS_LOGS>
-6.1

> <JCHEM_POLARIZABILITY>
42.12

> <JCHEM_POLAR_SURFACE_AREA>
50.19

> <JCHEM_REFRACTIVITY>
118.81

> <JCHEM_ROTATABLE_BOND_COUNT>
3

> <ALOGPS_SOLUBILITY>
3.02e-04 g/l __ 

$$$$
