1892
  Mrv0541 02231215482D          

 39 40  0  0  0  0            999 V2000
    1.8183    0.3365    0.0000 C   0  0  0  0  0  0  0  0  0  0  0  0
    1.4151   -0.4239    0.0000 C   0  0  0  0  0  0  0  0  0  0  0  0
    1.9090   -1.0575    0.0000 C   0  0  0  0  0  0  0  0  0  0  0  0
    0.4824   -0.5697    0.0000 C   0  0  0  0  0  0  0  0  0  0  0  0
   -0.1401   -1.3292    0.0000 O   0  0  0  0  0  0  0  0  0  0  0  0
   -0.1402    0.0617    0.0000 C   0  0  0  0  0  0  0  0  0  0  0  0
    0.4641    0.5919    0.0000 C   0  0  0  0  0  0  0  0  0  0  0  0
    0.4231    1.3257    0.0000 C   0  0  0  0  0  0  0  0  0  0  0  0
    1.1694    1.6494    0.0000 C   0  0  0  0  0  0  0  0  0  0  0  0
    1.9212    1.3387    0.0000 C   0  0  0  0  0  0  0  0  0  0  0  0
    2.6500    1.7108    0.0000 C   0  0  0  0  0  0  0  0  0  0  0  0
    2.6059    2.5311    0.0000 C   0  0  0  0  0  0  0  0  0  0  0  0
    3.3384    1.2631    0.0000 C   0  0  0  0  0  0  0  0  0  0  0  0
   -0.3484    1.6415    0.0000 C   0  0  0  0  0  0  0  0  0  0  0  0
    0.2634    2.2071    0.0000 O   0  0  0  0  0  0  0  0  0  0  0  0
   -1.1116    1.0248    0.0000 C   0  0  0  0  0  0  0  0  0  0  0  0
   -1.1086    1.9078    0.0000 C   0  0  0  0  0  0  0  0  0  0  0  0
   -0.5560    2.5589    0.0000 C   0  0  0  0  0  0  0  0  0  0  0  0
   -0.3025    3.3514    0.0000 C   0  0  0  0  0  0  0  0  0  0  0  0
   -1.0291    3.7568    0.0000 C   0  0  0  0  0  0  0  0  0  0  0  0
    0.4101    3.7759    0.0000 C   0  0  0  0  0  0  0  0  0  0  0  0
   -1.4752    0.0075    0.0000 C   0  0  0  0  0  0  0  0  0  0  0  0
   -1.0309   -0.7306    0.0000 C   0  0  0  0  0  0  0  0  0  0  0  0
   -1.4767   -1.4143    0.0000 C   0  0  0  0  0  0  0  0  0  0  0  0
   -2.2213   -1.0804    0.0000 C   0  0  0  0  0  0  0  0  0  0  0  0
   -2.8093   -1.6571    0.0000 C   0  0  0  0  0  0  0  0  0  0  0  0
   -2.5978   -2.4545    0.0000 C   0  0  0  0  0  0  0  0  0  0  0  0
   -3.5933   -1.4007    0.0000 C   0  0  0  0  0  0  0  0  0  0  0  0
   -0.1435   -0.7105    0.0000 C   0  0  0  0  0  0  0  0  0  0  0  0
    0.7954   -1.0542    0.0000 C   0  0  0  0  0  0  0  0  0  0  0  0
    0.4291   -1.5519    0.0000 C   0  0  0  0  0  0  0  0  0  0  0  0
    0.1714   -2.3528    0.0000 C   0  0  0  0  0  0  0  0  0  0  0  0
    0.7944   -2.8831    0.0000 C   0  0  0  0  0  0  0  0  0  0  0  0
    0.4045   -3.6033    0.0000 C   0  0  0  0  0  0  0  0  0  0  0  0
   -0.4123   -3.6908    0.0000 C   0  0  0  0  0  0  0  0  0  0  0  0
    0.9281   -4.2369    0.0000 C   0  0  0  0  0  0  0  0  0  0  0  0
   -1.0148    0.4798    0.0000 C   0  0  0  0  0  0  0  0  0  0  0  0
   -2.0000    0.4791    0.0000 O   0  0  0  0  0  0  0  0  0  0  0  0
    1.1184    0.2023    0.0000 O   0  0  0  0  0  0  0  0  0  0  0  0
  1  2  1  0  0  0  0
  2  3  1  0  0  0  0
  2  4  1  0  0  0  0
  4  5  2  0  0  0  0
  4  6  1  0  0  0  0
  6  7  1  0  0  0  0
  7  8  2  0  0  0  0
  8  9  1  0  0  0  0
  9 10  1  0  0  0  0
 10 11  2  0  0  0  0
 11 12  1  0  0  0  0
 11 13  1  0  0  0  0
  8 14  1  0  0  0  0
 14 15  2  0  0  0  0
 14 16  1  0  0  0  0
 16 17  1  0  0  0  0
 17 18  1  0  0  0  0
 18 19  2  0  0  0  0
 19 20  1  0  0  0  0
 19 21  1  0  0  0  0
 16 22  1  0  0  0  0
 22 23  1  0  0  0  0
 23 24  1  0  0  0  0
 24 25  1  0  0  0  0
 25 26  2  0  0  0  0
 26 27  1  0  0  0  0
 26 28  1  0  0  0  0
 23 29  1  0  0  0  0
  6 29  1  0  0  0  0
 29 30  1  0  0  0  0
 29 31  1  0  0  0  0
 31 32  1  0  0  0  0
 32 33  1  0  0  0  0
 33 34  2  0  0  0  0
 34 35  1  0  0  0  0
 34 36  1  0  0  0  0
 16 37  1  0  0  0  0
  6 37  1  0  0  0  0
 37 38  2  0  0  0  0
  7 39  1  0  0  0  0
M  END
> <DRUGBANK_ID>
DB01892

> <DRUG_GROUPS>
nutraceutical

> <GENERIC_NAME>
Hyperforin

> <SYNONYMS>
Hiperforina; Hyperforine

> <CHEMICAL_FORMULA>
C35H52O4

> <MOLECULAR_WEIGHT>
536.785

> <EXACT_MASS>
536.386560152

> <IUPAC_NAME>
4-hydroxy-6-methyl-1,3,7-tris(3-methylbut-2-en-1-yl)-6-(4-methylpent-3-en-1-yl)-5-(2-methylpropanoyl)bicyclo[3.3.1]non-3-ene-2,9-dione

> <IUPAC_TRADITIONAL_NAME>
4-hydroxy-6-methyl-1,3,7-tris(3-methylbut-2-en-1-yl)-6-(4-methylpent-3-en-1-yl)-5-(2-methylpropanoyl)bicyclo[3.3.1]non-3-ene-2,9-dione

> <INCHI_IDENTIFIER>
InChI=1S/C35H52O4/c1-22(2)13-12-19-33(11)27(16-14-23(3)4)21-34(20-18-25(7)8)30(37)28(17-15-24(5)6)31(38)35(33,32(34)39)29(36)26(9)10/h13-15,18,26-27,38H,12,16-17,19-21H2,1-11H3

> <INCHI_KEY>
InChIKey=IWBJJCOKGLUQIZ-UHFFFAOYSA-N

> <SMILES>
CC(C)C(=O)C12C(O)=C(CC=C(C)C)C(=O)C(CC=C(C)C)(CC(CC=C(C)C)C1(C)CCC=C(C)C)C2=O

> <JCHEM_ACCEPTOR_COUNT>
4

> <JCHEM_DONOR_COUNT>
1

> <JCHEM_ACIDIC_PKA>
6.32

> <JCHEM_BASIC_PKA>
-6.6

> <JCHEM_PHYSIOLOGICAL_CHARGE>
-1

> <ALOGPS_LOGP>
6.32

> <JCHEM_LOGP>
9.67

> <ALOGPS_LOGS>
-5.9

> <JCHEM_POLARIZABILITY>
64.09

> <JCHEM_POLAR_SURFACE_AREA>
71.44

> <JCHEM_REFRACTIVITY>
166.68

> <JCHEM_ROTATABLE_BOND_COUNT>
11

> <ALOGPS_SOLUBILITY>
6.32e-04 g/l __ 

$$$$
