
  Mrv0541 02231215582D          

 43 50  0  0  1  0            999 V2000
    1.0008    0.9760    0.0000 C    0  0  0  0  0  0  0  0  0  0  0  0
    1.6353    0.4486    0.0000 C    0  0  0  0  0  0  0  0  0  0  0  0
    2.4348    0.6519    0.0000 C    0  0  0  0  0  0  0  0  0  0  0  0
    2.9554    1.5893    0.0000 C    0  0  0  0  0  0  0  0  0  0  0  0
    3.6697    2.0020    0.0000 C    0  0  0  0  0  0  0  0  0  0  0  0
    3.9753    2.7684    0.0000 C    0  0  0  0  0  0  0  0  0  0  0  0
    3.5348    3.4660    0.0000 C    0  0  0  0  0  0  0  0  0  0  0  0
    3.9188    4.1962    0.0000 C    0  0  0  0  0  0  0  0  0  0  0  0
    4.7985    2.7146    0.0000 C    0  0  0  0  0  0  0  0  0  0  0  0
    5.3259    3.3490    0.0000 C    0  0  0  0  0  0  0  0  0  0  0  0
    5.0018    1.9151    0.0000 C    0  0  0  0  0  0  0  0  0  0  0  0
    4.3042    1.4746    0.0000 N    0  3  0  0  0  0  0  0  0  0  0  0
    4.3499    0.0000    0.0000 Co   0  0  2  0  0  0  0  0  0  0  0  0
    5.8245    0.0457    0.0000 N    0  0  0  0  0  0  0  0  0  0  0  0
    6.2649   -0.6519    0.0000 C    0  0  0  0  0  0  0  0  0  0  0  0
    5.7444   -1.5893    0.0000 C    0  0  0  0  0  0  0  0  0  0  0  0
    5.0300   -2.0020    0.0000 C    0  0  0  0  0  0  0  0  0  0  0  0
    4.3956   -1.4746    0.0000 N    0  3  0  0  0  0  0  0  0  0  0  0
    3.6980   -1.9151    0.0000 C    0  0  0  0  0  0  0  0  0  0  0  0
    2.7605   -1.3945    0.0000 C    0  0  0  0  0  0  0  0  0  0  0  0
    2.3479   -0.6802    0.0000 C    0  0  0  0  0  0  0  0  0  0  0  0
    2.8752   -0.0457    0.0000 N    0  0  0  0  0  0  0  0  0  0  0  0
    1.5815   -0.3746    0.0000 C    0  0  0  0  0  0  0  0  0  0  0  0
    0.8839   -0.8150    0.0000 C    0  0  0  0  0  0  0  0  0  0  0  0
    0.1537   -0.4311    0.0000 C    0  0  0  0  0  0  0  0  0  0  0  0
   -0.5439   -0.8715    0.0000 C    0  0  0  0  0  0  0  0  0  0  0  0
   -0.5113   -1.6958    0.0000 O    0  0  0  0  0  0  0  0  0  0  0  0
   -1.2741   -0.4875    0.0000 O    0  0  0  0  0  0  0  0  0  0  0  0
    3.9013   -2.7146    0.0000 C    0  0  0  0  0  0  0  0  0  0  0  0
    3.3739   -3.3490    0.0000 C    0  0  0  0  0  0  0  0  0  0  0  0
    3.6596   -4.1230    0.0000 C    0  0  0  0  0  0  0  0  0  0  0  0
    3.1322   -4.7574    0.0000 C    0  0  0  0  0  0  0  0  0  0  0  0
    3.4180   -5.5313    0.0000 O    0  0  0  0  0  0  0  0  0  0  0  0
    2.3191   -4.6179    0.0000 O    0  0  0  0  0  0  0  0  0  0  0  0
    4.7245   -2.7684    0.0000 C    0  0  0  0  0  0  0  0  0  0  0  0
    5.1649   -3.4660    0.0000 C    0  0  0  0  0  0  0  0  0  0  0  0
    7.0645   -0.4486    0.0000 C    0  0  0  0  0  0  0  0  0  0  0  0
    7.6989   -0.9760    0.0000 C    0  0  0  0  0  0  0  0  0  0  0  0
    7.1183    0.3746    0.0000 C    0  0  0  0  0  0  0  0  0  0  0  0
    7.8159    0.8150    0.0000 C    0  0  0  0  0  0  0  0  0  0  0  0
    7.7833    1.6394    0.0000 C    0  0  0  0  0  0  0  0  0  0  0  0
    6.3519    0.6802    0.0000 C    0  0  0  0  0  0  0  0  0  0  0  0
    5.9392    1.3945    0.0000 C    0  0  0  0  0  0  0  0  0  0  0  0
  1  2  1  0  0  0  0
  2  3  2  0  0  0  0
  3  4  1  0  0  0  0
  4  5  2  0  0  0  0
  5  6  1  0  0  0  0
  6  7  1  0  0  0  0
  7  8  2  0  0  0  0
  6  9  2  0  0  0  0
  9 10  1  0  0  0  0
  9 11  1  0  0  0  0
 11 12  2  0  0  0  0
  5 12  1  0  0  0  0
 13 12  1  6  0  0  0
 13 14  1  0  0  0  0
 14 15  1  0  0  0  0
 15 16  2  0  0  0  0
 16 17  1  0  0  0  0
 17 18  2  0  0  0  0
 13 18  1  0  0  0  0
 18 19  1  0  0  0  0
 19 20  2  0  0  0  0
 20 21  1  0  0  0  0
 21 22  1  0  0  0  0
  3 22  1  0  0  0  0
 13 22  1  0  0  0  0
 21 23  2  0  0  0  0
  2 23  1  0  0  0  0
 23 24  1  0  0  0  0
 24 25  1  0  0  0  0
 25 26  1  0  0  0  0
 26 27  1  0  0  0  0
 26 28  2  0  0  0  0
 19 29  1  0  0  0  0
 29 30  1  0  0  0  0
 30 31  1  0  0  0  0
 31 32  1  0  0  0  0
 32 33  1  0  0  0  0
 32 34  2  0  0  0  0
 29 35  2  0  0  0  0
 17 35  1  0  0  0  0
 35 36  1  0  0  0  0
 15 37  1  0  0  0  0
 37 38  1  0  0  0  0
 37 39  2  0  0  0  0
 39 40  1  0  0  0  0
 40 41  2  0  0  0  0
 39 42  1  0  0  0  0
 14 42  1  0  0  0  0
 42 43  2  0  0  0  0
 11 43  1  0  0  0  0
M  END
> <DRUGBANK_ID>
DB02110

> <DRUG_GROUPS>
experimental

> <GENERIC_NAME>
Protoporphyrin Ix Containing Co

> <CHEMICAL_FORMULA>
C34H32CoN4O4

> <MOLECULAR_WEIGHT>
619.5755

> <EXACT_MASS>
619.175555726

> <IUPAC_NAME>
(1R)-5,9-bis(2-carboxyethyl)-14,19-diethenyl-4,10,15,20-tetramethyl-2$l^{5},22,23$l^{5},25-tetraaza-1-cobaltaoctacyclo[11.9.1.1^{1,8}.1^{3,21}.0^{2,6}.0^{16,23}.0^{18,22}.0^{11,25}]pentacosa-2,4,6,8,10,12,14,16(23),17,19,21(24)-undecaene-2,23-bis(ylium)

> <IUPAC_TRADITIONAL_NAME>
(1R)-5,9-bis(2-carboxyethyl)-14,19-diethenyl-4,10,15,20-tetramethyl-2$l^{5},22,23$l^{5},25-tetraaza-1-cobaltaoctacyclo[11.9.1.1^{1,8}.1^{3,21}.0^{2,6}.0^{16,23}.0^{18,22}.0^{11,25}]pentacosa-2,4,6,8,10,12,14,16(23),17,19,21(24)-undecaene-2,23-bis(ylium)

> <INCHI_IDENTIFIER>
InChI=1S/C34H34N4O4.Co/c1-7-21-17(3)25-13-26-19(5)23(9-11-33(39)40)31(37-26)16-32-24(10-12-34(41)42)20(6)28(38-32)15-30-22(8-2)18(4)27(36-30)14-29(21)35-25;/h7-8,13-16H,1-2,9-12H2,3-6H3,(H4,35,36,37,38,39,40,41,42);/q;+4/p-2/b25-13-,26-13-,27-14-,28-15-,29-14-,30-15-,31-16-,32-16-;

> <INCHI_KEY>
InChIKey=XKAUCPKZLCNDIC-RGGAHWMASA-L

> <SMILES>
CC1=C(C=C)C2=CC3=[N+]4C(=CC5=C(C)C(CCC(O)=O)=C6C=C7C(CCC(O)=O)=C(C)C8=[N+]7[Co@]4(N2C1=C8)N56)C(C=C)=C3C

> <JCHEM_ACCEPTOR_COUNT>
4

> <JCHEM_DONOR_COUNT>
2

> <JCHEM_ACIDIC_PKA>
3.28

> <JCHEM_PHYSIOLOGICAL_CHARGE>
0

> <ALOGPS_LOGP>
0.26

> <JCHEM_LOGP>
1.39

> <ALOGPS_LOGS>
-5.6

> <JCHEM_POLARIZABILITY>
68.22

> <JCHEM_POLAR_SURFACE_AREA>
92.22

> <JCHEM_REFRACTIVITY>
169.77

> <JCHEM_ROTATABLE_BOND_COUNT>
8

> <ALOGPS_SOLUBILITY>
1.73e-03 g/l __ 

$$$$
