
  Mrv0541 02231216082D          

 54 58  0  0  1  0            999 V2000
  -13.5139    4.1407    0.0000 N   0  0  0  0  0  0  0  0  0  0  0  0
  -12.6934    4.0544    0.0000 C   0  0  1  0  0  0  0  0  0  0  0  0
  -12.3579    3.3008    0.0000 C   0  0  0  0  0  0  0  0  0  0  0  0
  -12.8428    2.6333    0.0000 C   0  0  0  0  0  0  0  0  0  0  0  0
  -13.6633    2.7195    0.0000 O   0  0  0  0  0  0  0  0  0  0  0  0
  -12.5073    1.8796    0.0000 C   0  0  1  0  0  0  0  0  0  0  0  0
  -12.9922    1.2122    0.0000 O   0  0  0  0  0  0  0  0  0  0  0  0
  -11.6868    1.7934    0.0000 C   0  0  0  0  0  0  0  0  0  0  0  0
  -11.2018    2.4608    0.0000 C   0  0  0  0  0  0  0  0  0  0  0  0
  -10.3814    2.3746    0.0000 C   0  0  0  0  0  0  0  0  0  0  0  0
  -10.0458    1.6209    0.0000 N   0  3  0  0  0  0  0  0  0  0  0  0
  -10.5307    0.9535    0.0000 C   0  0  0  0  0  0  0  0  0  0  0  0
  -11.3512    1.0397    0.0000 C   0  0  0  0  0  0  0  0  0  0  0  0
  -11.8361    0.3723    0.0000 C   0  0  0  0  0  0  0  0  0  0  0  0
  -12.6566    0.4585    0.0000 N   0  0  0  0  0  0  0  0  0  0  0  0
  -11.5006   -0.3814    0.0000 O   0  0  0  0  0  0  0  0  0  0  0  0
   -9.2253    1.5347    0.0000 C   0  0  2  0  0  0  0  0  0  0  0  0
   -8.6733    2.1478    0.0000 O   0  0  0  0  0  0  0  0  0  0  0  0
   -7.9196    1.8122    0.0000 C   0  0  1  0  0  0  0  0  0  0  0  0
   -7.2052    2.2247    0.0000 C   0  0  0  0  0  0  0  0  0  0  0  0
   -6.4907    1.8122    0.0000 O   0  0  0  0  0  0  0  0  0  0  0  0
   -5.7762    2.2247    0.0000 P   0  0  2  0  0  0  0  0  0  0  0  0
   -6.1887    2.9392    0.0000 O   0  0  0  0  0  0  0  0  0  0  0  0
   -5.3637    1.5103    0.0000 O   0  0  0  0  0  0  0  0  0  0  0  0
   -5.0617    2.6372    0.0000 O   0  0  0  0  0  0  0  0  0  0  0  0
   -4.3473    2.2247    0.0000 P   0  0  1  0  0  0  0  0  0  0  0  0
   -3.9348    2.9392    0.0000 O   0  0  0  0  0  0  0  0  0  0  0  0
   -4.7598    1.5103    0.0000 O   0  0  0  0  0  0  0  0  0  0  0  0
   -3.6328    1.8122    0.0000 O   0  0  0  0  0  0  0  0  0  0  0  0
   -2.9183    2.2247    0.0000 C   0  0  0  0  0  0  0  0  0  0  0  0
   -2.2039    1.8122    0.0000 C   0  0  2  0  0  0  0  0  0  0  0  0
   -1.4502    2.1478    0.0000 O   0  0  0  0  0  0  0  0  0  0  0  0
   -0.8981    1.5347    0.0000 C   0  0  2  0  0  0  0  0  0  0  0  0
   -1.3106    0.8202    0.0000 C   0  0  2  0  0  0  0  0  0  0  0  0
   -0.9751    0.0665    0.0000 O   0  0  0  0  0  0  0  0  0  0  0  0
   -2.1176    0.9917    0.0000 C   0  0  1  0  0  0  0  0  0  0  0  0
   -2.7307    0.4397    0.0000 O   0  0  0  0  0  0  0  0  0  0  0  0
   -0.0777    1.6209    0.0000 N   0  0  0  0  0  0  0  0  0  0  0  0
    0.4744    1.0078    0.0000 C   0  0  0  0  0  0  0  0  0  0  0  0
    1.2280    1.3434    0.0000 N   0  0  0  0  0  0  0  0  0  0  0  0
    1.1418    2.1639    0.0000 C   0  0  0  0  0  0  0  0  0  0  0  0
    0.3348    2.3354    0.0000 C   0  0  0  0  0  0  0  0  0  0  0  0
    0.0799    3.1200    0.0000 N   0  0  0  0  0  0  0  0  0  0  0  0
    0.6319    3.7331    0.0000 C   0  0  0  0  0  0  0  0  0  0  0  0
    1.4389    3.5616    0.0000 N   0  0  0  0  0  0  0  0  0  0  0  0
    1.6938    2.7770    0.0000 C   0  0  0  0  0  0  0  0  0  0  0  0
    2.5008    2.6054    0.0000 N   0  0  0  0  0  0  0  0  0  0  0  0
   -8.0059    0.9917    0.0000 C   0  0  2  0  0  0  0  0  0  0  0  0
   -7.3928    0.4397    0.0000 O   0  0  0  0  0  0  0  0  0  0  0  0
   -8.8128    0.8202    0.0000 C   0  0  1  0  0  0  0  0  0  0  0  0
   -9.1484    0.0665    0.0000 O   0  0  0  0  0  0  0  0  0  0  0  0
  -12.2085    4.7219    0.0000 C   0  0  0  0  0  0  0  0  0  0  0  0
  -11.3880    4.6356    0.0000 O   0  0  0  0  0  0  0  0  0  0  0  0
  -12.5441    5.4755    0.0000 O   0  0  0  0  0  0  0  0  0  0  0  0
  2  1  1  6  0  0  0
  2  3  1  0  0  0  0
  3  4  1  0  0  0  0
  4  5  2  0  0  0  0
  4  6  1  0  0  0  0
  6  7  1  6  0  0  0
  6  8  1  0  0  0  0
  8  9  2  0  0  0  0
  9 10  1  0  0  0  0
 10 11  2  0  0  0  0
 11 12  1  0  0  0  0
 12 13  2  0  0  0  0
  8 13  1  0  0  0  0
 13 14  1  0  0  0  0
 14 15  1  0  0  0  0
 14 16  2  0  0  0  0
 17 11  1  6  0  0  0
 17 18  1  0  0  0  0
 18 19  1  0  0  0  0
 19 20  1  1  0  0  0
 20 21  1  0  0  0  0
 22 21  1  1  0  0  0
 22 23  1  6  0  0  0
 22 24  2  0  0  0  0
 22 25  1  0  0  0  0
 26 25  1  6  0  0  0
 26 27  1  1  0  0  0
 26 28  2  0  0  0  0
 26 29  1  0  0  0  0
 29 30  1  0  0  0  0
 31 30  1  6  0  0  0
 31 32  1  0  0  0  0
 32 33  1  0  0  0  0
 33 34  1  0  0  0  0
 34 35  1  6  0  0  0
 34 36  1  0  0  0  0
 31 36  1  0  0  0  0
 36 37  1  1  0  0  0
 33 38  1  1  0  0  0
 38 39  1  0  0  0  0
 39 40  2  0  0  0  0
 40 41  1  0  0  0  0
 41 42  2  0  0  0  0
 38 42  1  0  0  0  0
 42 43  1  0  0  0  0
 43 44  2  0  0  0  0
 44 45  1  0  0  0  0
 45 46  2  0  0  0  0
 41 46  1  0  0  0  0
 46 47  1  0  0  0  0
 19 48  1  0  0  0  0
 48 49  1  6  0  0  0
 48 50  1  0  0  0  0
 17 50  1  0  0  0  0
 50 51  1  1  0  0  0
  2 52  1  0  0  0  0
 52 53  1  0  0  0  0
 52 54  2  0  0  0  0
M  END
> <DRUGBANK_ID>
DB02349

> <DRUG_GROUPS>
experimental

> <GENERIC_NAME>
Nicotinamide-Adenine-Dinucleotide-5-Hydroxy-4-Oxonorvaline

> <CHEMICAL_FORMULA>
C26H35N8O18P2

> <MOLECULAR_WEIGHT>
809.5464

> <EXACT_MASS>
809.15445438

> <IUPAC_NAME>
4-[(1S,4S)-4-amino-4-carboxy-1-hydroxy-2-oxobutyl]-1-[(2R,3R,4R,5S)-5-[({[({[(2S,3R,4R,5R)-5-(6-amino-9H-purin-9-yl)-3,4-dihydroxyoxolan-2-yl]methoxy}(hydroxy)phosphoryl)oxy](hydroxy)phosphoryl}oxy)methyl]-3,4-dihydroxyoxolan-2-yl]-3-carbamoyl-1$l^{5}-pyridin-1-ylium

> <IUPAC_TRADITIONAL_NAME>
4-[(1S,4S)-4-amino-4-carboxy-1-hydroxy-2-oxobutyl]-1-[(2R,3R,4R,5S)-5-{[({[(2S,3R,4R,5R)-5-(6-aminopurin-9-yl)-3,4-dihydroxyoxolan-2-yl]methoxy(hydroxy)phosphoryl}oxy(hydroxy)phosphoryl)oxy]methyl}-3,4-dihydroxyoxolan-2-yl]-3-carbamoyl-1$l^{5}-pyridin-1-ylium

> <INCHI_IDENTIFIER>
InChI=1S/C26H34N8O18P2/c27-11(26(42)43)3-12(35)16(36)9-1-2-33(4-10(9)22(29)41)24-19(39)17(37)13(50-24)5-48-53(44,45)52-54(46,47)49-6-14-18(38)20(40)25(51-14)34-8-32-15-21(28)30-7-31-23(15)34/h1-2,4,7-8,11,13-14,16-20,24-25,36-40H,3,5-6,27H2,(H6-,28,29,30,31,41,42,43,44,45,46,47)/p+1/t11-,13-,14-,16-,17-,18-,19+,20+,24+,25+/m0/s1

> <INCHI_KEY>
InChIKey=RSVNLFPFYXGAGU-LYKGGFJWSA-O

> <SMILES>
N[C@@H](CC(=O)[C@@H](O)C1=CC=[N+](C=C1C(N)=O)[C@@H]1O[C@@H](CO[P@](O)(=O)O[P@@](O)(=O)OC[C@@H]2O[C@H]([C@H](O)[C@H]2O)N2C=NC3=C2N=CN=C3N)[C@H](O)[C@H]1O)C(O)=O

> <JCHEM_ACCEPTOR_COUNT>
20

> <JCHEM_DONOR_COUNT>
11

> <JCHEM_ACIDIC_PKA>
0.8

> <JCHEM_BASIC_PKA>
8.67

> <JCHEM_PHYSIOLOGICAL_CHARGE>
-1

> <ALOGPS_LOGP>
-0.89

> <JCHEM_LOGP>
-15

> <ALOGPS_LOGS>
-2.4

> <JCHEM_POLARIZABILITY>
70.81

> <JCHEM_POLAR_SURFACE_AREA>
418.88

> <JCHEM_REFRACTIVITY>
172.08

> <JCHEM_ROTATABLE_BOND_COUNT>
16

> <ALOGPS_SOLUBILITY>
3.22e+00 g/l __ 

$$$$
