
  Mrv0541 02231216072D          

 37 41  0  0  1  0            999 V2000
   -3.9716   -2.9008    0.0000 O    0  0  0  0  0  0  0  0  0  0  0  0
   -4.7253   -2.5652    0.0000 C    0  0  0  0  0  0  0  0  0  0  0  0
   -5.3927   -3.0501    0.0000 O    0  0  0  0  0  0  0  0  0  0  0  0
   -4.8115   -1.7447    0.0000 C    0  0  1  0  0  0  0  0  0  0  0  0
   -5.5652   -1.4092    0.0000 C    0  0  0  0  0  0  0  0  0  0  0  0
   -6.2326   -1.8941    0.0000 C    0  0  0  0  0  0  0  0  0  0  0  0
   -6.1464   -2.7146    0.0000 C    0  0  0  0  0  0  0  0  0  0  0  0
   -6.8138   -3.1995    0.0000 C    0  0  0  0  0  0  0  0  0  0  0  0
   -7.5675   -2.8639    0.0000 C    0  0  0  0  0  0  0  0  0  0  0  0
   -7.6538   -2.0435    0.0000 C    0  0  0  0  0  0  0  0  0  0  0  0
   -6.9863   -1.5585    0.0000 C    0  0  0  0  0  0  0  0  0  0  0  0
   -4.1441   -1.2598    0.0000 N    0  0  0  0  0  0  0  0  0  0  0  0
   -3.3904   -1.5954    0.0000 C    0  0  0  0  0  0  0  0  0  0  0  0
   -2.7230   -1.1104    0.0000 C    0  0  0  0  0  0  0  0  0  0  0  0
   -2.7230   -0.2854    0.0000 C    0  0  0  0  0  0  0  0  0  0  0  0
   -1.9384   -0.0305    0.0000 C    0  0  0  0  0  0  0  0  0  0  0  0
   -1.4534   -0.6979    0.0000 C    0  0  0  0  0  0  0  0  0  0  0  0
   -1.9384   -1.3654    0.0000 S    0  0  0  0  0  0  0  0  0  0  0  0
   -0.6284   -0.6979    0.0000 C    0  0  0  0  0  0  0  0  0  0  0  0
   -0.1435   -1.3654    0.0000 C    0  0  0  0  0  0  0  0  0  0  0  0
    0.6411   -1.1104    0.0000 C    0  0  0  0  0  0  0  0  0  0  0  0
    0.6411   -0.2854    0.0000 C    0  0  0  0  0  0  0  0  0  0  0  0
   -0.1435   -0.0305    0.0000 O    0  0  0  0  0  0  0  0  0  0  0  0
    1.3556    0.1271    0.0000 C    0  0  0  0  0  0  0  0  0  0  0  0
    2.0701   -0.2854    0.0000 C    0  0  0  0  0  0  0  0  0  0  0  0
    2.0701   -1.1104    0.0000 C    0  0  0  0  0  0  0  0  0  0  0  0
    1.3556   -1.5229    0.0000 C    0  0  0  0  0  0  0  0  0  0  0  0
   -4.2303   -0.4393    0.0000 C    0  0  0  0  0  0  0  0  0  0  0  0
   -3.5629    0.0456    0.0000 O    0  0  0  0  0  0  0  0  0  0  0  0
   -4.9840   -0.1038    0.0000 C    0  0  0  0  0  0  0  0  0  0  0  0
   -5.6514   -0.5887    0.0000 C    0  0  0  0  0  0  0  0  0  0  0  0
   -6.4051   -0.2531    0.0000 C    0  0  0  0  0  0  0  0  0  0  0  0
   -6.4913    0.5673    0.0000 C    0  0  0  0  0  0  0  0  0  0  0  0
   -7.2450    0.9029    0.0000 Cl   0  0  0  0  0  0  0  0  0  0  0  0
   -5.8239    1.0523    0.0000 C    0  0  0  0  0  0  0  0  0  0  0  0
   -5.0702    0.7167    0.0000 C    0  0  0  0  0  0  0  0  0  0  0  0
   -4.4028    1.2016    0.0000 Cl   0  0  0  0  0  0  0  0  0  0  0  0
  1  2  1  0  0  0  0
  2  3  2  0  0  0  0
  2  4  1  0  0  0  0
  4  5  1  0  0  0  0
  5  6  1  0  0  0  0
  6  7  2  0  0  0  0
  7  8  1  0  0  0  0
  8  9  2  0  0  0  0
  9 10  1  0  0  0  0
 10 11  2  0  0  0  0
  6 11  1  0  0  0  0
  4 12  1  1  0  0  0
 12 13  1  0  0  0  0
 13 14  1  0  0  0  0
 14 15  2  0  0  0  0
 15 16  1  0  0  0  0
 16 17  2  0  0  0  0
 17 18  1  0  0  0  0
 14 18  1  0  0  0  0
 17 19  1  0  0  0  0
 19 20  2  0  0  0  0
 20 21  1  0  0  0  0
 21 22  2  0  0  0  0
 22 23  1  0  0  0  0
 19 23  1  0  0  0  0
 22 24  1  0  0  0  0
 24 25  2  0  0  0  0
 25 26  1  0  0  0  0
 26 27  2  0  0  0  0
 21 27  1  0  0  0  0
 12 28  1  0  0  0  0
 28 29  2  0  0  0  0
 28 30  1  0  0  0  0
 30 31  2  0  0  0  0
 31 32  1  0  0  0  0
 32 33  2  0  0  0  0
 33 34  1  0  0  0  0
 33 35  1  0  0  0  0
 35 36  2  0  0  0  0
 30 36  1  0  0  0  0
 36 37  1  0  0  0  0
M  END
> <DRUGBANK_ID>
DB02331

> <DRUG_GROUPS>
experimental

> <GENERIC_NAME>
(2s)-2-[(5-Benzofuran-2-Yl-Thiophen-2-Ylmethyl)-(2,4-Dichloro-Benzoyl)-Amino]-3-Phenyl-Propionic Acid

> <CHEMICAL_FORMULA>
C29H21Cl2NO4S

> <MOLECULAR_WEIGHT>
550.452

> <EXACT_MASS>
549.056834269

> <IUPAC_NAME>
(2R)-2-(N-{[5-(1-benzofuran-2-yl)thiophen-2-yl]methyl}-1-(2,4-dichlorophenyl)formamido)-3-phenylpropanoic acid

> <IUPAC_TRADITIONAL_NAME>
(2R)-2-(N-{[5-(1-benzofuran-2-yl)thiophen-2-yl]methyl}-1-(2,4-dichlorophenyl)formamido)-3-phenylpropanoic acid

> <INCHI_IDENTIFIER>
InChI=1S/C29H21Cl2NO4S/c30-20-10-12-22(23(31)16-20)28(33)32(24(29(34)35)14-18-6-2-1-3-7-18)17-21-11-13-27(37-21)26-15-19-8-4-5-9-25(19)36-26/h1-13,15-16,24H,14,17H2,(H,34,35)/t24-/m1/s1

> <INCHI_KEY>
InChIKey=YBULOUKTPCHXAL-XMMPIXPASA-N

> <SMILES>
OC(=O)[C@@H](CC1=CC=CC=C1)N(CC1=CC=C(S1)C1=CC2=C(O1)C=CC=C2)C(=O)C1=CC=C(Cl)C=C1Cl

> <JCHEM_ACCEPTOR_COUNT>
3

> <JCHEM_DONOR_COUNT>
1

> <JCHEM_ACIDIC_PKA>
4.42

> <JCHEM_BASIC_PKA>
-1.7

> <JCHEM_PHYSIOLOGICAL_CHARGE>
-1

> <ALOGPS_LOGP>
6.5

> <JCHEM_LOGP>
7.54

> <ALOGPS_LOGS>
-5.3

> <JCHEM_POLARIZABILITY>
56.03

> <JCHEM_POLAR_SURFACE_AREA>
70.75

> <JCHEM_REFRACTIVITY>
144.88

> <JCHEM_ROTATABLE_BOND_COUNT>
8

> <ALOGPS_SOLUBILITY>
2.55e-03 g/l __ 

$$$$
