TDA
  Mrv0541 02231216122D          

 15 14  0  0  0  0            999 V2000
   -4.9362   -0.2196    0.0000 O   0  0  0  0  0  0  0  0  0  0  0  0
   -4.2216    1.0180    0.0000 O   0  0  0  0  0  0  0  0  0  0  0  0
   -4.2216    0.1929    0.0000 C   0  0  0  0  0  0  0  0  0  0  0  0
   -3.5072   -0.2196    0.0000 C   0  0  0  0  0  0  0  0  0  0  0  0
   -2.7926    0.1929    0.0000 C   0  0  0  0  0  0  0  0  0  0  0  0
   -2.0781   -0.2196    0.0000 C   0  0  0  0  0  0  0  0  0  0  0  0
   -1.3636    0.1929    0.0000 C   0  0  0  0  0  0  0  0  0  0  0  0
   -0.6490   -0.2196    0.0000 C   0  0  0  0  0  0  0  0  0  0  0  0
    0.0655    0.1929    0.0000 C   0  0  0  0  0  0  0  0  0  0  0  0
    0.7801   -0.2196    0.0000 C   0  0  0  0  0  0  0  0  0  0  0  0
    1.4945    0.1929    0.0000 C   0  0  0  0  0  0  0  0  0  0  0  0
    2.2091   -0.2196    0.0000 C   0  0  0  0  0  0  0  0  0  0  0  0
    2.9236    0.1929    0.0000 C   0  0  0  0  0  0  0  0  0  0  0  0
    3.6381   -0.2196    0.0000 C   0  0  0  0  0  0  0  0  0  0  0  0
    4.3526    0.1929    0.0000 C   0  0  0  0  0  0  0  0  0  0  0  0
  1  3  1  0  0  0  0
  2  3  2  0  0  0  0
  3  4  1  0  0  0  0
  4  5  1  0  0  0  0
  5  6  1  0  0  0  0
  6  7  1  0  0  0  0
  7  8  1  0  0  0  0
  8  9  1  0  0  0  0
  9 10  1  0  0  0  0
 10 11  1  0  0  0  0
 11 12  1  0  0  0  0
 12 13  1  0  0  0  0
 13 14  1  0  0  0  0
 14 15  1  0  0  0  0
M  END
> <DRUGBANK_ID>
DB02448

> <DRUG_GROUPS>
experimental

> <GENERIC_NAME>
N-Tridecanoic Acid

> <CHEMICAL_FORMULA>
C13H26O2

> <MOLECULAR_WEIGHT>
214.3443

> <EXACT_MASS>
214.193280076

> <IUPAC_NAME>
tridecanoic acid

> <IUPAC_TRADITIONAL_NAME>
N-tridecanoic acid

> <INCHI_IDENTIFIER>
InChI=1S/C13H26O2/c1-2-3-4-5-6-7-8-9-10-11-12-13(14)15/h2-12H2,1H3,(H,14,15)

> <INCHI_KEY>
InChIKey=SZHOJFHSIKHZHA-UHFFFAOYSA-N

> <SMILES>
CCCCCCCCCCCCC(O)=O

> <JCHEM_ACCEPTOR_COUNT>
2

> <JCHEM_DONOR_COUNT>
1

> <JCHEM_ACIDIC_PKA>
4.95

> <JCHEM_PHYSIOLOGICAL_CHARGE>
-1

> <ALOGPS_LOGP>
5.57

> <JCHEM_LOGP>
4.92

> <ALOGPS_LOGS>
-4.7

> <JCHEM_POLARIZABILITY>
27.95

> <JCHEM_POLAR_SURFACE_AREA>
37.3

> <JCHEM_REFRACTIVITY>
63.28

> <JCHEM_ROTATABLE_BOND_COUNT>
11

> <ALOGPS_SOLUBILITY>
3.91e-03 g/l __ 

$$$$
