
  Mrv0541 02231215582D          

 40 44  0  0  1  0            999 V2000
   -1.1153   -0.1550    0.0000 N   0  0  0  0  0  0  0  0  0  0  0  0
   -1.1153   -0.9800    0.0000 C   0  0  0  0  0  0  0  0  0  0  0  0
   -0.4008   -1.3925    0.0000 C   0  0  0  0  0  0  0  0  0  0  0  0
   -0.4008   -2.2175    0.0000 C   0  0  0  0  0  0  0  0  0  0  0  0
    0.3137   -2.6300    0.0000 C   0  0  0  0  0  0  0  0  0  0  0  0
    1.0281   -2.2175    0.0000 N   0  0  0  0  0  0  0  0  0  0  0  0
    0.9665   -1.3948    0.0000 C   0  0  1  0  0  0  0  0  0  0  0  0
    0.1985   -1.0934    0.0000 C   0  0  0  0  0  0  0  0  0  0  0  0
    0.0756   -0.2777    0.0000 C   0  0  0  0  0  0  0  0  0  0  0  0
   -0.6924    0.0238    0.0000 C   0  0  0  0  0  0  0  0  0  0  0  0
   -0.8154    0.8395    0.0000 C   0  0  0  0  0  0  0  0  0  0  0  0
   -0.1704    1.3539    0.0000 C   0  0  0  0  0  0  0  0  0  0  0  0
    0.5976    1.0525    0.0000 C   0  0  0  0  0  0  0  0  0  0  0  0
    0.7206    0.2367    0.0000 C   0  0  0  0  0  0  0  0  0  0  0  0
    1.5713   -0.8337    0.0000 C   0  0  2  0  0  0  0  0  0  0  0  0
    1.3281   -0.0454    0.0000 O   0  0  0  0  0  0  0  0  0  0  0  0
    2.3870   -0.9567    0.0000 C   0  0  1  0  0  0  0  0  0  0  0  0
    2.8518   -0.2750    0.0000 O   0  0  0  0  0  0  0  0  0  0  0  0
    2.7995   -1.6711    0.0000 C   0  0  2  0  0  0  0  0  0  0  0  0
    3.6222   -1.6095    0.0000 C   0  0  0  0  0  0  0  0  0  0  0  0
    4.0870   -2.2911    0.0000 C   0  0  0  0  0  0  0  0  0  0  0  0
    4.9097   -2.2295    0.0000 C   0  0  0  0  0  0  0  0  0  0  0  0
    5.3744   -2.9111    0.0000 C   0  0  0  0  0  0  0  0  0  0  0  0
    5.0165   -3.6544    0.0000 C   0  0  0  0  0  0  0  0  0  0  0  0
    4.1938   -3.7161    0.0000 C   0  0  0  0  0  0  0  0  0  0  0  0
    3.7290   -3.0344    0.0000 C   0  0  0  0  0  0  0  0  0  0  0  0
    2.4981   -2.4391    0.0000 N   0  0  0  0  0  0  0  0  0  0  0  0
    3.0593   -3.0439    0.0000 C   0  0  0  0  0  0  0  0  0  0  0  0
    2.8161   -3.8322    0.0000 C   0  0  0  0  0  0  0  0  0  0  0  0
    3.3773   -4.4370    0.0000 C   0  0  0  0  0  0  0  0  0  0  0  0
    3.1341   -5.2253    0.0000 C   0  0  0  0  0  0  0  0  0  0  0  0
    3.6952   -5.8301    0.0000 N   0  0  0  0  0  0  0  0  0  0  0  0
    2.3298   -5.4089    0.0000 C   0  0  0  0  0  0  0  0  0  0  0  0
    1.7686   -4.8041    0.0000 C   0  0  0  0  0  0  0  0  0  0  0  0
    2.0118   -4.0158    0.0000 C   0  0  0  0  0  0  0  0  0  0  0  0
    1.7098   -2.6823    0.0000 C   0  0  2  0  0  0  0  0  0  0  0  0
    1.5868   -3.4981    0.0000 O   0  0  0  0  0  0  0  0  0  0  0  0
   -1.1153   -2.6300    0.0000 C   0  0  0  0  0  0  0  0  0  0  0  0
   -1.8297   -2.2175    0.0000 C   0  0  0  0  0  0  0  0  0  0  0  0
   -1.8297   -1.3925    0.0000 C   0  0  0  0  0  0  0  0  0  0  0  0
  1  2  1  0  0  0  0
  2  3  2  0  0  0  0
  3  4  1  0  0  0  0
  4  5  1  0  0  0  0
  5  6  1  0  0  0  0
  6  7  1  0  0  0  0
  7  8  1  1  0  0  0
  8  9  1  0  0  0  0
  9 10  2  0  0  0  0
 10 11  1  0  0  0  0
 11 12  2  0  0  0  0
 12 13  1  0  0  0  0
 13 14  2  0  0  0  0
  9 14  1  0  0  0  0
  7 15  1  0  0  0  0
 15 16  1  6  0  0  0
 15 17  1  0  0  0  0
 17 18  1  1  0  0  0
 17 19  1  0  0  0  0
 19 20  1  6  0  0  0
 20 21  1  0  0  0  0
 21 22  2  0  0  0  0
 22 23  1  0  0  0  0
 23 24  2  0  0  0  0
 24 25  1  0  0  0  0
 25 26  2  0  0  0  0
 21 26  1  0  0  0  0
 19 27  1  0  0  0  0
 27 28  1  0  0  0  0
 28 29  1  0  0  0  0
 29 30  2  0  0  0  0
 30 31  1  0  0  0  0
 31 32  1  0  0  0  0
 31 33  2  0  0  0  0
 33 34  1  0  0  0  0
 34 35  2  0  0  0  0
 29 35  1  0  0  0  0
 27 36  1  0  0  0  0
  6 36  1  0  0  0  0
 36 37  1  6  0  0  0
  4 38  2  0  0  0  0
 38 39  1  0  0  0  0
 39 40  2  0  0  0  0
  2 40  1  0  0  0  0
M  END
> <DRUGBANK_ID>
DB02102

> <DRUG_GROUPS>
experimental

> <GENERIC_NAME>
DMP450

> <CHEMICAL_FORMULA>
C33H38N4O3

> <MOLECULAR_WEIGHT>
538.6798

> <EXACT_MASS>
538.294391102

> <IUPAC_NAME>
(4S,5S,6S,7S)-1,3-bis[(3-aminophenyl)methyl]-4,7-dibenzyl-1,3-diazepane-2,5,6-triol

> <IUPAC_TRADITIONAL_NAME>
(4S,5S,6S,7S)-1,3-bis[(3-aminophenyl)methyl]-4,7-dibenzyl-1,3-diazepane-2,5,6-triol

> <INCHI_IDENTIFIER>
InChI=1S/C33H38N4O3/c34-27-15-7-13-25(17-27)21-36-29(19-23-9-3-1-4-10-23)31(38)32(39)30(20-24-11-5-2-6-12-24)37(33(36)40)22-26-14-8-16-28(35)18-26/h1-18,29-33,38-40H,19-22,34-35H2/t29-,30-,31-,32-/m0/s1

> <INCHI_KEY>
InChIKey=XGWVVCFTECTRQS-YDPTYEFTSA-N

> <SMILES>
NC1=CC(CN2C(O)N(CC3=CC(N)=CC=C3)[C@@H](CC3=CC=CC=C3)[C@H](O)[C@@H](O)[C@@H]2CC2=CC=CC=C2)=CC=C1

> <JCHEM_ACCEPTOR_COUNT>
7

> <JCHEM_DONOR_COUNT>
5

> <JCHEM_ACIDIC_PKA>
11.9

> <JCHEM_BASIC_PKA>
6.72

> <JCHEM_PHYSIOLOGICAL_CHARGE>
0

> <ALOGPS_LOGP>
2.9

> <JCHEM_LOGP>
4.74

> <ALOGPS_LOGS>
-4

> <JCHEM_POLARIZABILITY>
58.61

> <JCHEM_POLAR_SURFACE_AREA>
119.21

> <JCHEM_REFRACTIVITY>
161.2

> <JCHEM_ROTATABLE_BOND_COUNT>
8

> <ALOGPS_SOLUBILITY>
4.77e-02 g/l __ 

$$$$
