
  Mrv0541 02231216112D          

 17 19  0  0  1  0            999 V2000
    3.2789    2.0625    0.0000 O   0  0  0  0  0  0  0  0  0  0  0  0
    3.2789    1.2375    0.0000 C   0  0  0  0  0  0  0  0  0  0  0  0
    3.9934    0.8250    0.0000 N   0  0  0  0  0  0  0  0  0  0  0  0
    3.9934    0.0000    0.0000 C   0  0  2  0  0  0  0  0  0  0  0  0
    4.7079   -0.4125    0.0000 C   0  0  0  0  0  0  0  0  0  0  0  0
    5.4223    0.0000    0.0000 C   0  0  0  0  0  0  0  0  0  0  0  0
    5.5086    0.8205    0.0000 C   0  0  0  0  0  0  0  0  0  0  0  0
    6.3155    0.9920    0.0000 N   0  0  0  0  0  0  0  0  0  0  0  0
    6.7280    0.2775    0.0000 C   0  0  0  0  0  0  0  0  0  0  0  0
    6.1760   -0.3356    0.0000 N   0  0  0  0  0  0  0  0  0  0  0  0
    3.2789   -0.4125    0.0000 C   0  0  0  0  0  0  0  0  0  0  0  0
    3.2789   -1.2375    0.0000 O   0  0  0  0  0  0  0  0  0  0  0  0
    2.5645    0.0000    0.0000 N   0  0  0  0  0  0  0  0  0  0  0  0
    1.7798   -0.2549    0.0000 C   0  0  0  0  0  0  0  0  0  0  0  0
    1.2949    0.4125    0.0000 C   0  0  0  0  0  0  0  0  0  0  0  0
    1.7798    1.0799    0.0000 C   0  0  0  0  0  0  0  0  0  0  0  0
    2.5645    0.8250    0.0000 C   0  0  1  0  0  0  0  0  0  0  0  0
  1  2  2  0  0  0  0
  2  3  1  0  0  0  0
  3  4  1  0  0  0  0
  4  5  1  6  0  0  0
  5  6  1  0  0  0  0
  6  7  4  0  0  0  0
  7  8  4  0  0  0  0
  8  9  4  0  0  0  0
  9 10  4  0  0  0  0
  6 10  4  0  0  0  0
  4 11  1  0  0  0  0
 11 12  2  0  0  0  0
 11 13  1  0  0  0  0
 13 14  1  0  0  0  0
 14 15  1  0  0  0  0
 15 16  1  0  0  0  0
 16 17  1  0  0  0  0
  2 17  1  0  0  0  0
 17 13  1  1  0  0  0
M  END
> <DRUGBANK_ID>
DB02414

> <DRUG_GROUPS>
experimental

> <GENERIC_NAME>
(3s,8ar)-3-(1h-Imidazol-5-Ylmethyl)Hexahydropyrrolo[1,2-a]Pyrazine-1,4-Dione

> <CHEMICAL_FORMULA>
C11H13N4O2

> <MOLECULAR_WEIGHT>
233.2465

> <EXACT_MASS>
233.10385068

> <IUPAC_NAME>
(3R,8aS)-3-(imidazol-4-ylmethyl)-octahydropyrrolo[1,2-a]piperazine-1,4-dione

> <IUPAC_TRADITIONAL_NAME>
(3R,8aS)-3-(imidazol-4-ylmethyl)-hexahydropyrrolo[1,2-a]piperazine-1,4-dione

> <SMILES>
O=C1N[C@H](Cc2cncn2)C(=O)N2CCC[C@@H]12

> <JCHEM_ACCEPTOR_COUNT>
4

> <JCHEM_DONOR_COUNT>
1

> <JCHEM_ACIDIC_PKA>
10.44

> <JCHEM_BASIC_PKA>
2.77

> <JCHEM_PHYSIOLOGICAL_CHARGE>
0

> <ALOGPS_LOGP>
-0.64

> <JCHEM_LOGP>
-1.4

> <ALOGPS_LOGS>
-1.3

> <JCHEM_POLARIZABILITY>
22.57

> <JCHEM_POLAR_SURFACE_AREA>
75.19

> <JCHEM_REFRACTIVITY>
58.65

> <JCHEM_ROTATABLE_BOND_COUNT>
2

> <ALOGPS_SOLUBILITY>
1.18e+01 g/l __ 

$$$$
