
  Mrv0541 02231215542D          

 24 26  0  0  1  0            999 V2000
    2.7845    0.6979    0.0000 C   0  0  0  0  0  0  0  0  0  0  0  0
    2.0701    1.1104    0.0000 C   0  0  0  0  0  0  0  0  0  0  0  0
    1.3556    0.6979    0.0000 C   0  0  0  0  0  0  0  0  0  0  0  0
    0.6411    1.1104    0.0000 C   0  0  0  0  0  0  0  0  0  0  0  0
    0.6411    1.9354    0.0000 C   0  0  0  0  0  0  0  0  0  0  0  0
    1.3556    2.3479    0.0000 C   0  0  0  0  0  0  0  0  0  0  0  0
    2.0701    1.9354    0.0000 C   0  0  0  0  0  0  0  0  0  0  0  0
    2.7845    2.3479    0.0000 C   0  0  0  0  0  0  0  0  0  0  0  0
   -0.1435    2.1904    0.0000 N   0  0  0  0  0  0  0  0  0  0  0  0
   -0.6284    1.5229    0.0000 C   0  0  0  0  0  0  0  0  0  0  0  0
   -0.1435    0.8555    0.0000 N   0  0  0  0  0  0  0  0  0  0  0  0
   -0.3984    2.9750    0.0000 C   0  0  2  0  0  0  0  0  0  0  0  0
   -1.1831    3.2299    0.0000 O   0  0  0  0  0  0  0  0  0  0  0  0
   -1.1831    4.0549    0.0000 C   0  0  1  0  0  0  0  0  0  0  0  0
   -1.8505    4.5399    0.0000 C   0  0  0  0  0  0  0  0  0  0  0  0
   -1.7643    5.3603    0.0000 O   0  0  0  0  0  0  0  0  0  0  0  0
   -2.4317    5.8453    0.0000 P   0  0  0  0  0  0  0  0  0  0  0  0
   -3.0991    6.3302    0.0000 O   0  0  0  0  0  0  0  0  0  0  0  0
   -1.9468    6.5127    0.0000 O   0  0  0  0  0  0  0  0  0  0  0  0
   -2.9166    5.1778    0.0000 O   0  0  0  0  0  0  0  0  0  0  0  0
   -0.3984    4.3099    0.0000 C   0  0  2  0  0  0  0  0  0  0  0  0
   -0.1435    5.0945    0.0000 O   0  0  0  0  0  0  0  0  0  0  0  0
    0.0865    3.6424    0.0000 C   0  0  1  0  0  0  0  0  0  0  0  0
    0.9115    3.6424    0.0000 O   0  0  0  0  0  0  0  0  0  0  0  0
  1  2  1  0  0  0  0
  2  3  2  0  0  0  0
  3  4  1  0  0  0  0
  4  5  2  0  0  0  0
  5  6  1  0  0  0  0
  6  7  2  0  0  0  0
  2  7  1  0  0  0  0
  7  8  1  0  0  0  0
  5  9  1  0  0  0  0
  9 10  1  0  0  0  0
 10 11  2  0  0  0  0
  4 11  1  0  0  0  0
 12  9  1  6  0  0  0
 12 13  1  0  0  0  0
 13 14  1  0  0  0  0
 14 15  1  1  0  0  0
 15 16  1  0  0  0  0
 16 17  1  0  0  0  0
 17 18  1  0  0  0  0
 17 19  1  0  0  0  0
 17 20  2  0  0  0  0
 14 21  1  0  0  0  0
 21 22  1  6  0  0  0
 21 23  1  0  0  0  0
 12 23  1  0  0  0  0
 23 24  1  1  0  0  0
M  END
> <DRUGBANK_ID>
DB02030

> <DRUG_GROUPS>
experimental

> <GENERIC_NAME>
Alpha-Ribazole-5'-Phosphate

> <CHEMICAL_FORMULA>
C14H19N2O7P

> <MOLECULAR_WEIGHT>
358.2836

> <EXACT_MASS>
358.092987484

> <IUPAC_NAME>
{[(2S,3R,4R,5R)-5-(5,6-dimethyl-1H-1,3-benzodiazol-1-yl)-3,4-dihydroxyoxolan-2-yl]methoxy}phosphonic acid

> <IUPAC_TRADITIONAL_NAME>
[(2S,3R,4R,5R)-5-(5,6-dimethyl-1,3-benzodiazol-1-yl)-3,4-dihydroxyoxolan-2-yl]methoxyphosphonic acid

> <INCHI_IDENTIFIER>
InChI=1S/C14H19N2O7P/c1-7-3-9-10(4-8(7)2)16(6-15-9)14-13(18)12(17)11(23-14)5-22-24(19,20)21/h3-4,6,11-14,17-18H,5H2,1-2H3,(H2,19,20,21)/t11-,12-,13+,14+/m0/s1

> <INCHI_KEY>
InChIKey=ZMRGXEJKZPRBPJ-IGQOVBAYSA-N

> <SMILES>
CC1=CC2=C(C=C1C)N(C=N2)[C@@H]1O[C@@H](COP(O)(O)=O)[C@H](O)[C@H]1O

> <JCHEM_ACCEPTOR_COUNT>
7

> <JCHEM_DONOR_COUNT>
4

> <JCHEM_ACIDIC_PKA>
1.22

> <JCHEM_BASIC_PKA>
5.81

> <JCHEM_PHYSIOLOGICAL_CHARGE>
-2

> <ALOGPS_LOGP>
-0.32

> <JCHEM_LOGP>
-1.5

> <ALOGPS_LOGS>
-2.4

> <JCHEM_POLARIZABILITY>
33.82

> <JCHEM_POLAR_SURFACE_AREA>
134.27

> <JCHEM_REFRACTIVITY>
82.52

> <JCHEM_ROTATABLE_BOND_COUNT>
4

> <ALOGPS_SOLUBILITY>
1.53e+00 g/l __ 

$$$$
