
  Mrv0541 02231216112D          

 11 10  0  0  1  0            999 V2000
    1.7605    1.8414    0.0000 C   0  0  0  0  0  0  0  0  0  0  0  0
    2.4750    1.4289    0.0000 C   0  0  2  0  0  0  0  0  0  0  0  0
    2.4750    0.6039    0.0000 O   0  0  0  0  0  0  0  0  0  0  0  0
    3.1895    1.8414    0.0000 C   0  0  2  0  0  0  0  0  0  0  0  0
    3.1895    2.6664    0.0000 O   0  0  0  0  0  0  0  0  0  0  0  0
    3.9039    1.4289    0.0000 C   0  0  1  0  0  0  0  0  0  0  0  0
    3.9039    0.6039    0.0000 O   0  0  0  0  0  0  0  0  0  0  0  0
    4.6184    1.8414    0.0000 C   0  0  2  0  0  0  0  0  0  0  0  0
    4.6184    2.6664    0.0000 O   0  0  0  0  0  0  0  0  0  0  0  0
    5.3329    1.4289    0.0000 C   0  0  0  0  0  0  0  0  0  0  0  0
    6.0474    1.8414    0.0000 O   0  0  0  0  0  0  0  0  0  0  0  0
  1  2  1  0  0  0  0
  2  3  1  1  0  0  0
  2  4  1  0  0  0  0
  4  5  1  6  0  0  0
  4  6  1  0  0  0  0
  6  7  1  6  0  0  0
  6  8  1  0  0  0  0
  8  9  1  6  0  0  0
  8 10  1  0  0  0  0
 10 11  1  0  0  0  0
M  END
> <DRUGBANK_ID>
DB02399

> <DRUG_GROUPS>
experimental

> <GENERIC_NAME>
L-Rhamnitol

> <CHEMICAL_FORMULA>
C6H14O5

> <MOLECULAR_WEIGHT>
166.1724

> <EXACT_MASS>
166.084123558

> <IUPAC_NAME>
(2R,3S,4S,5S)-hexane-1,2,3,4,5-pentol

> <IUPAC_TRADITIONAL_NAME>
L-rhamnitol

> <INCHI_IDENTIFIER>
InChI=1S/C6H14O5/c1-3(8)5(10)6(11)4(9)2-7/h3-11H,2H2,1H3/t3-,4+,5-,6-/m0/s1

> <INCHI_KEY>
InChIKey=SKCKOFZKJLZSFA-FSIIMWSLSA-N

> <SMILES>
C[C@H](O)[C@H](O)[C@@H](O)[C@H](O)CO

> <JCHEM_ACCEPTOR_COUNT>
5

> <JCHEM_DONOR_COUNT>
5

> <JCHEM_ACIDIC_PKA>
12.7

> <JCHEM_BASIC_PKA>
-3

> <JCHEM_PHYSIOLOGICAL_CHARGE>
0

> <ALOGPS_LOGP>
-2.2

> <JCHEM_LOGP>
-2.7

> <ALOGPS_LOGS>
0.46

> <JCHEM_POLARIZABILITY>
16.25

> <JCHEM_POLAR_SURFACE_AREA>
101.15

> <JCHEM_REFRACTIVITY>
36.86

> <JCHEM_ROTATABLE_BOND_COUNT>
4

> <ALOGPS_SOLUBILITY>
4.76e+02 g/l __ 

$$$$
