
  Mrv0541 02231215542D          

 29 29  0  0  1  0            999 V2000
   -2.8018   -2.9037    0.0000 O   0  0  0  0  0  0  0  0  0  0  0  0
   -2.0010   -2.7055    0.0000 C   0  0  0  0  0  0  0  0  0  0  0  0
   -1.4289   -3.3000    0.0000 C   0  0  0  0  0  0  0  0  0  0  0  0
   -1.6578   -4.0926    0.0000 O   0  0  0  0  0  0  0  0  0  0  0  0
   -0.6281   -3.1018    0.0000 C   0  0  0  0  0  0  0  0  0  0  0  0
   -0.0561   -3.6963    0.0000 O   0  0  0  0  0  0  0  0  0  0  0  0
    0.7448   -3.4982    0.0000 P   0  0  1  0  0  0  0  0  0  0  0  0
    0.9429   -4.2990    0.0000 O   0  0  0  0  0  0  0  0  0  0  0  0
    0.5466   -2.6973    0.0000 O   0  0  0  0  0  0  0  0  0  0  0  0
    1.5456   -3.3000    0.0000 O   0  0  0  0  0  0  0  0  0  0  0  0
    2.1177   -3.8945    0.0000 C   0  0  1  0  0  0  0  0  0  0  0  0
    2.9185   -3.6963    0.0000 C   0  0  2  0  0  0  0  0  0  0  0  0
    3.1473   -2.9037    0.0000 O   0  0  0  0  0  0  0  0  0  0  0  0
    3.4906   -4.2908    0.0000 C   0  0  1  0  0  0  0  0  0  0  0  0
    4.2914   -4.0926    0.0000 O   0  0  0  0  0  0  0  0  0  0  0  0
    3.2617   -5.0834    0.0000 C   0  0  2  0  0  0  0  0  0  0  0  0
    3.8338   -5.6779    0.0000 O   0  0  0  0  0  0  0  0  0  0  0  0
    4.6346   -5.4797    0.0000 P   0  0  0  0  0  0  0  0  0  0  0  0
    5.4355   -5.2816    0.0000 O   0  0  0  0  0  0  0  0  0  0  0  0
    4.8328   -6.2806    0.0000 O   0  0  0  0  0  0  0  0  0  0  0  0
    4.4365   -4.6789    0.0000 O   0  0  0  0  0  0  0  0  0  0  0  0
    2.4609   -5.2816    0.0000 C   0  0  2  0  0  0  0  0  0  0  0  0
    2.2321   -6.0742    0.0000 O   0  0  0  0  0  0  0  0  0  0  0  0
    1.4312   -6.2724    0.0000 P   0  0  0  0  0  0  0  0  0  0  0  0
    1.2331   -5.4715    0.0000 O   0  0  0  0  0  0  0  0  0  0  0  0
    1.6294   -7.0732    0.0000 O   0  0  0  0  0  0  0  0  0  0  0  0
    0.6304   -6.4705    0.0000 O   0  0  0  0  0  0  0  0  0  0  0  0
    1.8889   -4.6871    0.0000 C   0  0  2  0  0  0  0  0  0  0  0  0
    1.0880   -4.8853    0.0000 O   0  0  0  0  0  0  0  0  0  0  0  0
  1  2  1  0  0  0  0
  2  3  1  0  0  0  0
  3  4  2  0  0  0  0
  3  5  1  0  0  0  0
  5  6  1  0  0  0  0
  7  6  1  1  0  0  0
  7  8  1  6  0  0  0
  7  9  2  0  0  0  0
  7 10  1  0  0  0  0
 11 10  1  1  0  0  0
 11 12  1  0  0  0  0
 12 13  1  6  0  0  0
 12 14  1  0  0  0  0
 14 15  1  1  0  0  0
 14 16  1  0  0  0  0
 16 17  1  6  0  0  0
 17 18  1  0  0  0  0
 18 19  1  0  0  0  0
 18 20  1  0  0  0  0
 18 21  2  0  0  0  0
 16 22  1  0  0  0  0
 22 23  1  6  0  0  0
 23 24  1  0  0  0  0
 24 25  1  0  0  0  0
 24 26  1  0  0  0  0
 24 27  2  0  0  0  0
 22 28  1  0  0  0  0
 11 28  1  0  0  0  0
 28 29  1  6  0  0  0
M  END
> <DRUGBANK_ID>
DB02028

> <DRUG_GROUPS>
experimental

> <GENERIC_NAME>
L-Alpha-Glycerophospho-D-Myo-Inositol-4,5-Bis-Phosphate

> <CHEMICAL_FORMULA>
C9H19O17P3

> <MOLECULAR_WEIGHT>
492.1582

> <EXACT_MASS>
491.983508718

> <IUPAC_NAME>
{[(1S,2R,3R,4S,5R,6R)-2,3,5-trihydroxy-4-{[hydroxy(3-hydroxy-2-oxopropoxy)phosphoryl]oxy}-6-(phosphonooxy)cyclohexyl]oxy}phosphonic acid

> <IUPAC_TRADITIONAL_NAME>
[(1S,2R,3R,4S,5R,6R)-2,3,5-trihydroxy-4-{[hydroxy(3-hydroxy-2-oxopropoxy)phosphoryl]oxy}-6-(phosphonooxy)cyclohexyl]oxyphosphonic acid

> <INCHI_IDENTIFIER>
InChI=1S/C9H19O17P3/c10-1-3(11)2-23-29(21,22)26-7-4(12)5(13)8(24-27(15,16)17)9(6(7)14)25-28(18,19)20/h4-10,12-14H,1-2H2,(H,21,22)(H2,15,16,17)(H2,18,19,20)/t4-,5-,6-,7+,8+,9-/m1/s1

> <INCHI_KEY>
InChIKey=JBQPYAMQMBKZDT-CMLZIERQSA-N

> <SMILES>
OCC(=O)CO[P@@](O)(=O)O[C@H]1[C@H](O)[C@@H](O)[C@H](OP(O)(O)=O)[C@H](OP(O)(O)=O)[C@@H]1O

> <JCHEM_ACCEPTOR_COUNT>
13

> <JCHEM_DONOR_COUNT>
9

> <JCHEM_ACIDIC_PKA>
0.62

> <JCHEM_BASIC_PKA>
-3.7

> <JCHEM_PHYSIOLOGICAL_CHARGE>
-5

> <ALOGPS_LOGP>
-0.82

> <JCHEM_LOGP>
-4.8

> <ALOGPS_LOGS>
-1.5

> <JCHEM_POLARIZABILITY>
36.8

> <JCHEM_POLAR_SURFACE_AREA>
287.27

> <JCHEM_REFRACTIVITY>
84.21

> <JCHEM_ROTATABLE_BOND_COUNT>
10

> <ALOGPS_SOLUBILITY>
1.43e+01 g/l __ 

$$$$
