
  Mrv0541 02231216072D          

 35 36  0  0  1  0            999 V2000
   -0.7145   -0.4125    0.0000 O   0  0  0  0  0  0  0  0  0  0  0  0
   -0.7145   -1.2375    0.0000 C   0  0  1  0  0  0  0  0  0  0  0  0
    0.0000   -1.6500    0.0000 O   0  0  0  0  0  0  0  0  0  0  0  0
    0.0000   -2.4750    0.0000 C   0  0  1  0  0  0  0  0  0  0  0  0
    0.7145   -2.8875    0.0000 C   0  0  0  0  0  0  0  0  0  0  0  0
    1.4289   -2.4750    0.0000 O   0  0  0  0  0  0  0  0  0  0  0  0
    1.4289   -1.6500    0.0000 S   0  0  0  0  0  0  0  0  0  0  0  0
    1.4289   -0.8250    0.0000 O   0  5  0  0  0  0  0  0  0  0  0  0
    0.6039   -1.6500    0.0000 O   0  0  0  0  0  0  0  0  0  0  0  0
    2.2539   -1.6500    0.0000 O   0  0  0  0  0  0  0  0  0  0  0  0
   -0.7145   -2.8875    0.0000 C   0  0  2  0  0  0  0  0  0  0  0  0
   -0.7145   -3.7125    0.0000 O   0  0  0  0  0  0  0  0  0  0  0  0
    0.0000   -4.1250    0.0000 C   0  0  2  0  0  0  0  0  0  0  0  0
    0.7145   -3.7125    0.0000 O   0  0  0  0  0  0  0  0  0  0  0  0
    1.4289   -4.1250    0.0000 C   0  0  0  0  0  0  0  0  0  0  0  0
    1.4289   -4.9500    0.0000 C   0  0  0  0  0  0  0  0  0  0  0  0
    0.7145   -5.3625    0.0000 C   0  0  1  0  0  0  0  0  0  0  0  0
    0.7145   -6.1875    0.0000 O   0  0  0  0  0  0  0  0  0  0  0  0
    0.0000   -4.9500    0.0000 C   0  0  1  0  0  0  0  0  0  0  0  0
   -0.7145   -5.3625    0.0000 O   0  0  0  0  0  0  0  0  0  0  0  0
   -0.7145   -6.1875    0.0000 S   0  0  0  0  0  0  0  0  0  0  0  0
   -0.7145   -7.0125    0.0000 O   0  5  0  0  0  0  0  0  0  0  0  0
   -1.5395   -6.1875    0.0000 O   0  0  0  0  0  0  0  0  0  0  0  0
    0.1105   -6.1875    0.0000 O   0  0  0  0  0  0  0  0  0  0  0  0
    2.1434   -3.7125    0.0000 C   0  0  0  0  0  0  0  0  0  0  0  0
    2.8579   -4.1250    0.0000 O   0  5  0  0  0  0  0  0  0  0  0  0
    2.1434   -2.8875    0.0000 O   0  0  0  0  0  0  0  0  0  0  0  0
   -1.4289   -2.4750    0.0000 C   0  0  1  0  0  0  0  0  0  0  0  0
   -2.1434   -2.8875    0.0000 O   0  0  0  0  0  0  0  0  0  0  0  0
   -1.4289   -1.6500    0.0000 C   0  0  2  0  0  0  0  0  0  0  0  0
   -2.1434   -1.2375    0.0000 N   0  0  0  0  0  0  0  0  0  0  0  0
   -2.1434   -0.4125    0.0000 S   0  0  0  0  0  0  0  0  0  0  0  0
   -1.3184   -0.4125    0.0000 O   0  5  0  0  0  0  0  0  0  0  0  0
   -2.9684   -0.4125    0.0000 O   0  0  0  0  0  0  0  0  0  0  0  0
   -2.1434    0.4125    0.0000 O   0  0  0  0  0  0  0  0  0  0  0  0
  2  1  1  1  0  0  0
  2  3  1  0  0  0  0
  3  4  1  0  0  0  0
  4  5  1  1  0  0  0
  5  6  1  0  0  0  0
  6  7  1  0  0  0  0
  7  8  1  0  0  0  0
  7  9  2  0  0  0  0
  7 10  2  0  0  0  0
  4 11  1  0  0  0  0
 11 12  1  6  0  0  0
 13 12  1  6  0  0  0
 13 14  1  0  0  0  0
 14 15  1  0  0  0  0
 15 16  2  0  0  0  0
 16 17  1  0  0  0  0
 17 18  1  1  0  0  0
 17 19  1  0  0  0  0
 13 19  1  0  0  0  0
 19 20  1  1  0  0  0
 20 21  1  0  0  0  0
 21 22  1  0  0  0  0
 21 23  2  0  0  0  0
 21 24  2  0  0  0  0
 15 25  1  0  0  0  0
 25 26  1  0  0  0  0
 25 27  2  0  0  0  0
 11 28  1  0  0  0  0
 28 29  1  1  0  0  0
 28 30  1  0  0  0  0
  2 30  1  0  0  0  0
 30 31  1  6  0  0  0
 31 32  1  0  0  0  0
 32 33  1  0  0  0  0
 32 34  2  0  0  0  0
 32 35  2  0  0  0  0
M  END
> <DRUGBANK_ID>
DB02322

> <DRUG_GROUPS>
experimental

> <GENERIC_NAME>
Heparin Disaccharide I-S

> <CHEMICAL_FORMULA>
C12H15NO19S3

> <MOLECULAR_WEIGHT>
573.438

> <EXACT_MASS>
572.940039373

> <IUPAC_NAME>
(2R,3R,4R)-2-{[(2S,3R,4S,5S,6S)-4,6-dihydroxy-5-(sulfonatoamino)-2-[(sulfonatooxy)methyl]oxan-3-yl]oxy}-4-hydroxy-3-(sulfonatooxy)-3,4-dihydro-2H-pyran-6-carboxylate

> <IUPAC_TRADITIONAL_NAME>
heparin disaccharide I-S

> <INCHI_IDENTIFIER>
InChI=1S/C12H19NO19S3/c14-3-1-4(10(16)17)30-12(8(3)32-35(25,26)27)31-9-5(2-28-34(22,23)24)29-11(18)6(7(9)15)13-33(19,20)21/h1,3,5-9,11-15,18H,2H2,(H,16,17)(H,19,20,21)(H,22,23,24)(H,25,26,27)/p-4/t3-,5+,6+,7+,8-,9+,11+,12+/m1/s1

> <INCHI_KEY>
InChIKey=LRPGJWKAYQRIAQ-XKUCOZAXSA-J

> <SMILES>
O[C@H]1O[C@@H](COS([O-])(=O)=O)[C@H](O[C@@H]2OC(=C[C@@H](O)[C@H]2OS([O-])(=O)=O)C([O-])=O)[C@@H](O)[C@@H]1NS([O-])(=O)=O

> <JCHEM_ACCEPTOR_COUNT>
17

> <JCHEM_DONOR_COUNT>
4

> <JCHEM_ACIDIC_PKA>
-2.5

> <JCHEM_BASIC_PKA>
-3.5

> <JCHEM_PHYSIOLOGICAL_CHARGE>
-4

> <ALOGPS_LOGP>
-1.2

> <JCHEM_LOGP>
-9.7

> <ALOGPS_LOGS>
-1.7

> <JCHEM_POLARIZABILITY>
45.02

> <JCHEM_POLAR_SURFACE_AREA>
330.6

> <JCHEM_REFRACTIVITY>
107.96

> <JCHEM_ROTATABLE_BOND_COUNT>
9

> <ALOGPS_SOLUBILITY>
1.20e+01 g/l __ 

$$$$
