
  Mrv0541 02231216272D          

 23 25  0  0  1  0            999 V2000
    4.0668    2.3479    0.0000 N   0  0  0  0  0  0  0  0  0  0  0  0
    3.3523    1.9354    0.0000 C   0  0  0  0  0  0  0  0  0  0  0  0
    3.3523    1.1104    0.0000 N   0  0  0  0  0  0  0  0  0  0  0  0
    2.6378    0.6979    0.0000 C   0  0  0  0  0  0  0  0  0  0  0  0
    1.9233    1.1104    0.0000 C   0  0  0  0  0  0  0  0  0  0  0  0
    1.1387    0.8555    0.0000 N   0  0  0  0  0  0  0  0  0  0  0  0
    0.6538    1.5229    0.0000 C   0  0  0  0  0  0  0  0  0  0  0  0
    1.1387    2.1904    0.0000 N   0  0  0  0  0  0  0  0  0  0  0  0
    1.9233    1.9354    0.0000 C   0  0  0  0  0  0  0  0  0  0  0  0
    2.6378    2.3479    0.0000 N   0  0  0  0  0  0  0  0  0  0  0  0
    0.8838    0.0709    0.0000 C   0  0  2  0  0  0  0  0  0  0  0  0
    1.3687   -0.5966    0.0000 O   0  0  0  0  0  0  0  0  0  0  0  0
    0.8838   -1.2640    0.0000 C   0  0  1  0  0  0  0  0  0  0  0  0
    1.1387   -2.0486    0.0000 C   0  0  0  0  0  0  0  0  0  0  0  0
    0.5867   -2.6617    0.0000 O   0  0  0  0  0  0  0  0  0  0  0  0
    0.8416   -3.4463    0.0000 P   0  0  0  0  0  0  0  0  0  0  0  0
    1.0966   -4.2310    0.0000 O   0  0  0  0  0  0  0  0  0  0  0  0
    0.0570   -3.7013    0.0000 O   0  0  0  0  0  0  0  0  0  0  0  0
    1.6262   -3.1914    0.0000 O   0  0  0  0  0  0  0  0  0  0  0  0
    0.0992   -1.0091    0.0000 C   0  0  2  0  0  0  0  0  0  0  0  0
   -0.5683   -1.4940    0.0000 O   0  0  0  0  0  0  0  0  0  0  0  0
    0.0992   -0.1841    0.0000 C   0  0  1  0  0  0  0  0  0  0  0  0
   -0.5683    0.3009    0.0000 O   0  0  0  0  0  0  0  0  0  0  0  0
  1  2  1  0  0  0  0
  2  3  2  0  0  0  0
  3  4  1  0  0  0  0
  4  5  2  0  0  0  0
  5  6  1  0  0  0  0
  6  7  1  0  0  0  0
  7  8  2  0  0  0  0
  8  9  1  0  0  0  0
  5  9  1  0  0  0  0
  9 10  2  0  0  0  0
  2 10  1  0  0  0  0
 11  6  1  6  0  0  0
 11 12  1  0  0  0  0
 12 13  1  0  0  0  0
 13 14  1  1  0  0  0
 14 15  1  0  0  0  0
 15 16  1  0  0  0  0
 16 17  1  0  0  0  0
 16 18  1  0  0  0  0
 16 19  2  0  0  0  0
 13 20  1  0  0  0  0
 20 21  1  6  0  0  0
 20 22  1  0  0  0  0
 11 22  1  0  0  0  0
 22 23  1  1  0  0  0
M  END
> <DRUGBANK_ID>
DB02770

> <DRUG_GROUPS>
experimental

> <GENERIC_NAME>
7-Alpha-D-Ribofuranosyl-2-Aminopurine-5'-Phosphate

> <CHEMICAL_FORMULA>
C10H14N5O7P

> <MOLECULAR_WEIGHT>
347.2212

> <EXACT_MASS>
347.063084339

> <IUPAC_NAME>
{[(2S,3R,4R,5R)-5-(2-amino-7H-purin-7-yl)-3,4-dihydroxyoxolan-2-yl]methoxy}phosphonic acid

> <IUPAC_TRADITIONAL_NAME>
[(2S,3R,4R,5R)-5-(2-aminopurin-7-yl)-3,4-dihydroxyoxolan-2-yl]methoxyphosphonic acid

> <INCHI_IDENTIFIER>
InChI=1S/C10H14N5O7P/c11-10-12-1-4-8(14-10)13-3-15(4)9-7(17)6(16)5(22-9)2-21-23(18,19)20/h1,3,5-7,9,16-17H,2H2,(H2,11,12,14)(H2,18,19,20)/t5-,6-,7+,9+/m0/s1

> <INCHI_KEY>
InChIKey=UDRQVOJQMHZSIM-XZMZPDFPSA-N

> <SMILES>
NC1=NC=C2N(C=NC2=N1)[C@@H]1O[C@@H](COP(O)(O)=O)[C@H](O)[C@H]1O

> <JCHEM_ACCEPTOR_COUNT>
10

> <JCHEM_DONOR_COUNT>
5

> <JCHEM_ACIDIC_PKA>
1.23

> <JCHEM_BASIC_PKA>
5.17

> <JCHEM_PHYSIOLOGICAL_CHARGE>
-2

> <ALOGPS_LOGP>
-3

> <JCHEM_LOGP>
-4.7

> <ALOGPS_LOGS>
-2

> <JCHEM_POLARIZABILITY>
29.73

> <JCHEM_POLAR_SURFACE_AREA>
186.07

> <JCHEM_REFRACTIVITY>
75.32

> <JCHEM_ROTATABLE_BOND_COUNT>
4

> <ALOGPS_SOLUBILITY>
3.26e+00 g/l __ 

$$$$
