
  Mrv0541 02231216202D          

 31 32  0  0  0  0            999 V2000
    2.8579   -9.9000    0.0000 C   0  0  0  0  0  0  0  0  0  0  0  0
    3.5724  -10.3125    0.0000 C   0  0  0  0  0  0  0  0  0  0  0  0
    3.5724  -11.1375    0.0000 O   0  0  0  0  0  0  0  0  0  0  0  0
    4.2868   -9.9000    0.0000 N   0  0  0  0  0  0  0  0  0  0  0  0
    5.0013  -10.3125    0.0000 C   0  0  0  0  0  0  0  0  0  0  0  0
    5.7158   -9.9000    0.0000 C   0  0  0  0  0  0  0  0  0  0  0  0
    6.4302  -10.3125    0.0000 S   0  0  0  0  0  0  0  0  0  0  0  0
    7.1447   -9.9000    0.0000 S   0  0  0  0  0  0  0  0  0  0  0  0
    7.8592  -10.3125    0.0000 C   0  0  0  0  0  0  0  0  0  0  0  0
    8.5737   -9.9000    0.0000 C   0  0  0  0  0  0  0  0  0  0  0  0
    9.2881  -10.3125    0.0000 N   0  0  0  0  0  0  0  0  0  0  0  0
   10.0026   -9.9000    0.0000 C   0  0  0  0  0  0  0  0  0  0  0  0
   10.0026   -9.0750    0.0000 O   0  0  0  0  0  0  0  0  0  0  0  0
   10.7171  -10.3125    0.0000 C   0  0  1  0  0  0  0  0  0  0  0  0
   11.4315   -9.9000    0.0000 C   0  0  0  0  0  0  0  0  0  0  0  0
   12.1460  -10.3125    0.0000 C   0  0  0  0  0  0  0  0  0  0  0  0
   12.1460  -11.1375    0.0000 C   0  0  1  0  0  0  0  0  0  0  0  0
   11.4315  -11.5500    0.0000 C   0  0  0  0  0  0  0  0  0  0  0  0
   10.7171  -11.1375    0.0000 C   0  0  0  0  0  0  0  0  0  0  0  0
   12.8605  -11.5500    0.0000 N   0  0  0  0  0  0  0  0  0  0  0  0
   13.5749  -11.1375    0.0000 C   0  0  0  0  0  0  0  0  0  0  0  0
   13.5749  -10.3125    0.0000 O   0  0  0  0  0  0  0  0  0  0  0  0
   14.2894  -11.5500    0.0000 C   0  0  0  0  0  0  0  0  0  0  0  0
   15.0039  -11.1375    0.0000 N   0  0  0  0  0  0  0  0  0  0  0  0
   15.7184  -11.5500    0.0000 C   0  0  0  0  0  0  0  0  0  0  0  0
   15.7184  -12.3750    0.0000 C   0  0  0  0  0  0  0  0  0  0  0  0
   15.0039  -12.7875    0.0000 N   0  0  0  0  0  0  0  0  0  0  0  0
   14.2894  -12.3750    0.0000 C   0  0  0  0  0  0  0  0  0  0  0  0
   13.5749  -12.7875    0.0000 C   0  0  0  0  0  0  0  0  0  0  0  0
   12.8605  -12.3750    0.0000 O   0  0  0  0  0  0  0  0  0  0  0  0
   13.5749  -13.6125    0.0000 O   0  0  0  0  0  0  0  0  0  0  0  0
  1  2  1  0  0  0  0
  2  3  2  0  0  0  0
  2  4  1  0  0  0  0
  4  5  1  0  0  0  0
  5  6  1  0  0  0  0
  6  7  1  0  0  0  0
  7  8  1  0  0  0  0
  8  9  1  0  0  0  0
  9 10  1  0  0  0  0
 10 11  1  0  0  0  0
 11 12  1  0  0  0  0
 12 13  2  0  0  0  0
 14 12  1  1  0  0  0
 14 15  1  0  0  0  0
 15 16  1  0  0  0  0
 16 17  1  0  0  0  0
 17 18  1  0  0  0  0
 18 19  1  0  0  0  0
 14 19  1  0  0  0  0
 17 20  1  6  0  0  0
 20 21  1  0  0  0  0
 21 22  2  0  0  0  0
 21 23  1  0  0  0  0
 23 24  2  0  0  0  0
 24 25  1  0  0  0  0
 25 26  2  0  0  0  0
 26 27  1  0  0  0  0
 27 28  2  0  0  0  0
 23 28  1  0  0  0  0
 28 29  1  0  0  0  0
 29 30  1  0  0  0  0
 29 31  2  0  0  0  0
M  END
> <DRUGBANK_ID>
DB02620

> <DRUG_GROUPS>
experimental

> <GENERIC_NAME>
Sp7343-Sp7964

> <CHEMICAL_FORMULA>
C19H27N5O5S2

> <MOLECULAR_WEIGHT>
469.578

> <EXACT_MASS>
469.145360379

> <IUPAC_NAME>
3-{[(1r,4r)-4-({2-[(2-acetamidoethyl)disulfanyl]ethyl}carbamoyl)cyclohexyl]carbamoyl}pyrazine-2-carboxylic acid

> <IUPAC_TRADITIONAL_NAME>
3-{[(1r,4r)-4-({2-[(2-acetamidoethyl)disulfanyl]ethyl}carbamoyl)cyclohexyl]carbamoyl}pyrazine-2-carboxylic acid

> <INCHI_IDENTIFIER>
InChI=1S/C19H27N5O5S2/c1-12(25)20-8-10-30-31-11-9-23-17(26)13-2-4-14(5-3-13)24-18(27)15-16(19(28)29)22-7-6-21-15/h6-7,13-14H,2-5,8-11H2,1H3,(H,20,25)(H,23,26)(H,24,27)(H,28,29)/t13-,14-

> <INCHI_KEY>
InChIKey=OMSKFAYIWROESZ-HDJSIYSDSA-N

> <SMILES>
CC(=O)NCCSSCCNC(=O)[C@H]1CC[C@@H](CC1)NC(=O)C1=NC=CN=C1C(O)=O

> <JCHEM_ACCEPTOR_COUNT>
7

> <JCHEM_DONOR_COUNT>
4

> <JCHEM_ACIDIC_PKA>
3.74

> <JCHEM_BASIC_PKA>
0.17

> <JCHEM_PHYSIOLOGICAL_CHARGE>
-1

> <ALOGPS_LOGP>
0.88

> <JCHEM_LOGP>
-0.83

> <ALOGPS_LOGS>
-4

> <JCHEM_POLARIZABILITY>
47.97

> <JCHEM_POLAR_SURFACE_AREA>
150.38

> <JCHEM_REFRACTIVITY>
118.94

> <JCHEM_ROTATABLE_BOND_COUNT>
11

> <ALOGPS_SOLUBILITY>
4.50e-02 g/l __ 

$$$$
