446816
  Mrv0541 02231216052D          

 21 22  0  0  0  0            999 V2000
    1.6991    4.1420    0.0000 Cl   0  0  0  0  0  0  0  0  0  0  0  0
    3.7829    1.2112    0.0000 O    0  0  0  0  0  0  0  0  0  0  0  0
    4.7934    0.0822    0.0000 N    0  0  0  0  0  0  0  0  0  0  0  0
    5.4609   -0.4027    0.0000 N    0  0  0  0  0  0  0  0  0  0  0  0
    3.3414   -0.1478    0.0000 N    0  0  0  0  0  0  0  0  0  0  0  0
    2.3852    0.9141    0.0000 N    0  0  0  0  0  0  0  0  0  0  0  0
    5.6908   -1.8548    0.0000 C    0  0  0  0  0  0  0  0  0  0  0  0
    5.2059   -1.1873    0.0000 C    0  0  0  0  0  0  0  0  0  0  0  0
    6.1758   -2.5222    0.0000 C    0  0  0  0  0  0  0  0  0  0  0  0
    5.0234   -2.3397    0.0000 C    0  0  0  0  0  0  0  0  0  0  0  0
    6.3583   -1.3699    0.0000 C    0  0  0  0  0  0  0  0  0  0  0  0
    4.3809   -1.1873    0.0000 C    0  0  0  0  0  0  0  0  0  0  0  0
    4.1260   -0.4027    0.0000 C    0  0  0  0  0  0  0  0  0  0  0  0
    4.7934    0.9072    0.0000 C    0  0  0  0  0  0  0  0  0  0  0  0
    3.1698    0.6592    0.0000 C    0  0  0  0  0  0  0  0  0  0  0  0
    2.2137    1.7211    0.0000 C    0  0  0  0  0  0  0  0  0  0  0  0
    1.4291    1.9760    0.0000 C    0  0  0  0  0  0  0  0  0  0  0  0
    2.8268    2.2731    0.0000 C    0  0  0  0  0  0  0  0  0  0  0  0
    1.2575    2.7830    0.0000 C    0  0  0  0  0  0  0  0  0  0  0  0
    2.6553    3.0801    0.0000 C    0  0  0  0  0  0  0  0  0  0  0  0
    1.8706    3.3351    0.0000 C    0  0  0  0  0  0  0  0  0  0  0  0
  1 21  1  0  0  0  0
  2 15  2  0  0  0  0
  3  4  1  0  0  0  0
  3 13  1  0  0  0  0
  3 14  1  0  0  0  0
  4  8  2  0  0  0  0
  5 13  1  0  0  0  0
  5 15  1  0  0  0  0
  6 15  1  0  0  0  0
  6 16  1  0  0  0  0
  7  8  1  0  0  0  0
  7  9  1  0  0  0  0
  7 10  1  0  0  0  0
  7 11  1  0  0  0  0
  8 12  1  0  0  0  0
 12 13  2  0  0  0  0
 16 17  2  0  0  0  0
 16 18  1  0  0  0  0
 17 19  1  0  0  0  0
 18 20  2  0  0  0  0
 19 21  2  0  0  0  0
 20 21  1  0  0  0  0
M  END
> <DRUGBANK_ID>
DB02277

> <DRUG_GROUPS>
experimental

> <GENERIC_NAME>
1-(5-Tert-Butyl-2-Methyl-2h-Pyrazol-3-Yl)-3-(4-Chloro-Phenyl)-Urea

> <CHEMICAL_FORMULA>
C15H19ClN4O

> <MOLECULAR_WEIGHT>
306.791

> <EXACT_MASS>
306.124738957

> <IUPAC_NAME>
3-(3-tert-butyl-1-methyl-1H-pyrazol-5-yl)-1-(4-chlorophenyl)urea

> <IUPAC_TRADITIONAL_NAME>
3-(5-tert-butyl-2-methylpyrazol-3-yl)-1-(4-chlorophenyl)urea

> <INCHI_IDENTIFIER>
InChI=1S/C15H19ClN4O/c1-15(2,3)12-9-13(20(4)19-12)18-14(21)17-11-7-5-10(16)6-8-11/h5-9H,1-4H3,(H2,17,18,21)

> <INCHI_KEY>
InChIKey=FWIJKWMXNHRSRO-UHFFFAOYSA-N

> <SMILES>
CN1N=C(C=C1NC(=O)NC1=CC=C(Cl)C=C1)C(C)(C)C

> <JCHEM_ACCEPTOR_COUNT>
2

> <JCHEM_DONOR_COUNT>
2

> <JCHEM_ACIDIC_PKA>
11.61

> <JCHEM_BASIC_PKA>
2.3

> <JCHEM_PHYSIOLOGICAL_CHARGE>
0

> <ALOGPS_LOGP>
3.92

> <JCHEM_LOGP>
4.17

> <ALOGPS_LOGS>
-3.7

> <JCHEM_POLARIZABILITY>
31.29

> <JCHEM_POLAR_SURFACE_AREA>
58.95

> <JCHEM_REFRACTIVITY>
97.31

> <JCHEM_ROTATABLE_BOND_COUNT>
3

> <ALOGPS_SOLUBILITY>
6.31e-02 g/l __ 

$$$$
