
  Mrv0541 02231215582D          

  9  9  0  0  0  0            999 V2000
    2.1913    1.6913    0.0000 O   0  0  0  0  0  0  0  0  0  0  0  0
    2.0198    0.8843    0.0000 C   0  0  0  0  0  0  0  0  0  0  0  0
    2.6329    0.3323    0.0000 O   0  0  0  0  0  0  0  0  0  0  0  0
    1.2352    0.6294    0.0000 C   0  0  0  0  0  0  0  0  0  0  0  0
    0.9803   -0.1553    0.0000 C   0  0  0  0  0  0  0  0  0  0  0  0
    0.1553   -0.1553    0.0000 O   0  0  0  0  0  0  0  0  0  0  0  0
   -0.0997    0.6294    0.0000 N   0  0  0  0  0  0  0  0  0  0  0  0
    0.5678    1.1143    0.0000 C   0  0  0  0  0  0  0  0  0  0  0  0
    0.5678    1.9393    0.0000 O   0  0  0  0  0  0  0  0  0  0  0  0
  1  2  1  0  0  0  0
  2  3  2  0  0  0  0
  2  4  1  0  0  0  0
  4  5  2  0  0  0  0
  5  6  1  0  0  0  0
  6  7  1  0  0  0  0
  7  8  2  0  0  0  0
  4  8  1  0  0  0  0
  8  9  1  0  0  0  0
M  END
> <DRUGBANK_ID>
DB02111

> <DRUG_GROUPS>
experimental

> <GENERIC_NAME>
3-Hydroxyisoxazole-4-Carboxylic Acid

> <CHEMICAL_FORMULA>
C4H3NO4

> <MOLECULAR_WEIGHT>
129.0709

> <EXACT_MASS>
129.006207589

> <IUPAC_NAME>
3-hydroxy-1,2-oxazole-4-carboxylic acid

> <IUPAC_TRADITIONAL_NAME>
3-hydroxy-1,2-oxazole-4-carboxylic acid

> <INCHI_IDENTIFIER>
InChI=1S/C4H3NO4/c6-3-2(4(7)8)1-9-5-3/h1H,(H,5,6)(H,7,8)

> <INCHI_KEY>
InChIKey=JLPHBZYAQYOJND-UHFFFAOYSA-N

> <SMILES>
OC(=O)C1=CON=C1O

> <JCHEM_ACCEPTOR_COUNT>
4

> <JCHEM_DONOR_COUNT>
2

> <JCHEM_ACIDIC_PKA>
3.82

> <JCHEM_BASIC_PKA>
-3

> <JCHEM_PHYSIOLOGICAL_CHARGE>
-2

> <ALOGPS_LOGP>
0.6

> <JCHEM_LOGP>
0.94

> <ALOGPS_LOGS>
-0.47

> <JCHEM_POLARIZABILITY>
9.82

> <JCHEM_POLAR_SURFACE_AREA>
83.56

> <JCHEM_REFRACTIVITY>
27.05

> <JCHEM_ROTATABLE_BOND_COUNT>
1

> <ALOGPS_SOLUBILITY>
4.39e+01 g/l __ 

$$$$
