
  Mrv0541 02231216032D          

 11 11  0  0  1  0            999 V2000
    2.1434    1.2375    0.0000 O   0  0  0  0  0  0  0  0  0  0  0  0
    1.4289    0.8250    0.0000 C   0  0  1  0  0  0  0  0  0  0  0  0
    1.4289    0.0000    0.0000 C   0  0  0  0  0  0  0  0  0  0  0  0
    0.7145   -0.4125    0.0000 O   0  0  0  0  0  0  0  0  0  0  0  0
    0.0000    0.0000    0.0000 C   0  0  1  0  0  0  0  0  0  0  0  0
    0.0000    0.8250    0.0000 C   0  0  0  0  0  0  0  0  0  0  0  0
    0.7145    1.2375    0.0000 C   0  0  2  0  0  0  0  0  0  0  0  0
    0.7145    2.0625    0.0000 O   0  0  0  0  0  0  0  0  0  0  0  0
   -0.7145   -0.4125    0.0000 C   0  0  0  0  0  0  0  0  0  0  0  0
   -0.7145   -1.2375    0.0000 O   0  0  0  0  0  0  0  0  0  0  0  0
   -1.4289    0.0000    0.0000 O   0  0  0  0  0  0  0  0  0  0  0  0
  2  1  1  1  0  0  0
  2  3  1  0  0  0  0
  3  4  1  0  0  0  0
  4  5  1  0  0  0  0
  5  6  1  0  0  0  0
  6  7  1  0  0  0  0
  2  7  1  0  0  0  0
  7  8  1  6  0  0  0
  5  9  1  6  0  0  0
  9 10  1  0  0  0  0
  9 11  2  0  0  0  0
M  END
> <DRUGBANK_ID>
DB02227

> <DRUG_GROUPS>
experimental

> <GENERIC_NAME>
4,5-Dihydroxy-Tetrahydro-Pyran-2-Carboxylic Acid

> <CHEMICAL_FORMULA>
C6H10O5

> <MOLECULAR_WEIGHT>
162.1406

> <EXACT_MASS>
162.05282343

> <IUPAC_NAME>
(2S,4S,5S)-4,5-dihydroxyoxane-2-carboxylic acid

> <IUPAC_TRADITIONAL_NAME>
(2S,4S,5S)-4,5-dihydroxyoxane-2-carboxylic acid

> <INCHI_IDENTIFIER>
InChI=1S/C6H10O5/c7-3-1-5(6(9)10)11-2-4(3)8/h3-5,7-8H,1-2H2,(H,9,10)/t3-,4-,5-/m0/s1

> <INCHI_KEY>
InChIKey=YRPRHLNMFWDGSL-YUPRTTJUSA-N

> <SMILES>
O[C@H]1CO[C@@H](C[C@@H]1O)C(O)=O

> <JCHEM_ACCEPTOR_COUNT>
5

> <JCHEM_DONOR_COUNT>
3

> <JCHEM_ACIDIC_PKA>
3.53

> <JCHEM_BASIC_PKA>
-3.2

> <JCHEM_PHYSIOLOGICAL_CHARGE>
-1

> <ALOGPS_LOGP>
-1.7

> <JCHEM_LOGP>
-1.6

> <ALOGPS_LOGS>
0.63

> <JCHEM_POLARIZABILITY>
14.78

> <JCHEM_POLAR_SURFACE_AREA>
86.99

> <JCHEM_REFRACTIVITY>
33.66

> <JCHEM_ROTATABLE_BOND_COUNT>
1

> <ALOGPS_SOLUBILITY>
6.92e+02 g/l __ 

$$$$
