
  Mrv0541 02231216102D          

 12 13  0  0  1  0            999 V2000
    2.7845    0.6979    0.0000 O   0  0  0  0  0  0  0  0  0  0  0  0
    2.0701    1.1104    0.0000 C   0  0  1  0  0  0  0  0  0  0  0  0
    1.3556    0.6979    0.0000 C   0  0  0  0  0  0  0  0  0  0  0  0
    0.6411    1.1104    0.0000 N   0  0  0  0  0  0  0  0  0  0  0  0
   -0.1435    0.8555    0.0000 C   0  0  0  0  0  0  0  0  0  0  0  0
   -0.6284    1.5229    0.0000 C   0  0  0  0  0  0  0  0  0  0  0  0
   -0.1435    2.1904    0.0000 N   0  0  0  0  0  0  0  0  0  0  0  0
    0.6411    1.9354    0.0000 C   0  0  0  0  0  0  0  0  0  0  0  0
    1.3556    2.3479    0.0000 C   0  0  1  0  0  0  0  0  0  0  0  0
    1.3556    3.1729    0.0000 O   0  0  0  0  0  0  0  0  0  0  0  0
    2.0701    1.9354    0.0000 C   0  0  2  0  0  0  0  0  0  0  0  0
    2.7845    2.3479    0.0000 O   0  0  0  0  0  0  0  0  0  0  0  0
  2  1  1  1  0  0  0
  2  3  1  0  0  0  0
  3  4  1  0  0  0  0
  4  5  1  0  0  0  0
  5  6  2  0  0  0  0
  6  7  1  0  0  0  0
  7  8  2  0  0  0  0
  4  8  1  0  0  0  0
  8  9  1  0  0  0  0
  9 10  1  1  0  0  0
  9 11  1  0  0  0  0
  2 11  1  0  0  0  0
 11 12  1  6  0  0  0
M  END
> <DRUGBANK_ID>
DB02374

> <DRUG_GROUPS>
experimental

> <GENERIC_NAME>
Xylose-Derived Imidazole

> <CHEMICAL_FORMULA>
C7H10N2O3

> <MOLECULAR_WEIGHT>
170.1659

> <EXACT_MASS>
170.069142196

> <IUPAC_NAME>
(6S,7R,8R)-5H,6H,7H,8H-imidazo[1,2-a]pyridine-6,7,8-triol

> <IUPAC_TRADITIONAL_NAME>
xylose-derived imidazole

> <INCHI_IDENTIFIER>
InChI=1S/C7H10N2O3/c10-4-3-9-2-1-8-7(9)6(12)5(4)11/h1-2,4-6,10-12H,3H2/t4-,5+,6-/m0/s1

> <INCHI_KEY>
InChIKey=QMHSBFMMOLGPGR-JKUQZMGJSA-N

> <SMILES>
O[C@H]1CN2C=CN=C2[C@@H](O)[C@@H]1O

> <JCHEM_ACCEPTOR_COUNT>
4

> <JCHEM_DONOR_COUNT>
3

> <JCHEM_ACIDIC_PKA>
12.36

> <JCHEM_BASIC_PKA>
5.61

> <JCHEM_PHYSIOLOGICAL_CHARGE>
0

> <ALOGPS_LOGP>
-1.4

> <JCHEM_LOGP>
-1.8

> <ALOGPS_LOGS>
-0.83

> <JCHEM_POLARIZABILITY>
16.28

> <JCHEM_POLAR_SURFACE_AREA>
78.51

> <JCHEM_REFRACTIVITY>
39.75

> <JCHEM_ROTATABLE_BOND_COUNT>
0

> <ALOGPS_SOLUBILITY>
2.51e+01 g/l __ 

$$$$
