PMA
  Mrv0541 02231216262D          

 18 18  0  0  0  0            999 V2000
    0.6434    0.3118    0.0000 C   0  0  0  0  0  0  0  0  0  0  0  0
    0.6434   -0.5132    0.0000 C   0  0  0  0  0  0  0  0  0  0  0  0
   -0.0711    0.7243    0.0000 C   0  0  0  0  0  0  0  0  0  0  0  0
   -0.7855   -0.5132    0.0000 C   0  0  0  0  0  0  0  0  0  0  0  0
   -0.7855    0.3118    0.0000 C   0  0  0  0  0  0  0  0  0  0  0  0
   -0.0711   -0.9257    0.0000 C   0  0  0  0  0  0  0  0  0  0  0  0
   -1.5000   -0.9257    0.0000 C   0  0  0  0  0  0  0  0  0  0  0  0
   -1.5000    0.7243    0.0000 C   0  0  0  0  0  0  0  0  0  0  0  0
    1.3579    0.7243    0.0000 C   0  0  0  0  0  0  0  0  0  0  0  0
    1.3579   -0.9257    0.0000 C   0  0  0  0  0  0  0  0  0  0  0  0
    2.0723    0.3118    0.0000 O   0  0  0  0  0  0  0  0  0  0  0  0
    1.3579    1.5493    0.0000 O   0  0  0  0  0  0  0  0  0  0  0  0
    1.3579   -1.7507    0.0000 O   0  0  0  0  0  0  0  0  0  0  0  0
    2.0723   -0.5132    0.0000 O   0  0  0  0  0  0  0  0  0  0  0  0
   -1.5000   -1.7507    0.0000 O   0  0  0  0  0  0  0  0  0  0  0  0
   -2.2145   -0.5132    0.0000 O   0  0  0  0  0  0  0  0  0  0  0  0
   -2.2145    0.3118    0.0000 O   0  0  0  0  0  0  0  0  0  0  0  0
   -1.5000    1.5493    0.0000 O   0  0  0  0  0  0  0  0  0  0  0  0
  1  2  2  0  0  0  0
  1  3  1  0  0  0  0
  1  9  1  0  0  0  0
  2  6  1  0  0  0  0
  2 10  1  0  0  0  0
  3  5  2  0  0  0  0
  4  5  1  0  0  0  0
  4  6  2  0  0  0  0
  4  7  1  0  0  0  0
  5  8  1  0  0  0  0
  7 15  2  0  0  0  0
  7 16  1  0  0  0  0
  8 17  2  0  0  0  0
  8 18  1  0  0  0  0
  9 11  2  0  0  0  0
  9 12  1  0  0  0  0
 10 13  2  0  0  0  0
 10 14  1  0  0  0  0
M  END
> <DRUGBANK_ID>
DB02749

> <DRUG_GROUPS>
experimental

> <GENERIC_NAME>
Pyromellitic Acid

> <CHEMICAL_FORMULA>
C10H6O8

> <MOLECULAR_WEIGHT>
254.1498

> <EXACT_MASS>
254.006267168

> <IUPAC_NAME>
benzene-1,2,4,5-tetracarboxylic acid

> <IUPAC_TRADITIONAL_NAME>
pyromellitic acid

> <INCHI_IDENTIFIER>
InChI=1S/C10H6O8/c11-7(12)3-1-4(8(13)14)6(10(17)18)2-5(3)9(15)16/h1-2H,(H,11,12)(H,13,14)(H,15,16)(H,17,18)

> <INCHI_KEY>
InChIKey=CYIDZMCFTVVTJO-UHFFFAOYSA-N

> <SMILES>
OC(=O)C1=CC(C(O)=O)=C(C=C1C(O)=O)C(O)=O

> <JCHEM_ACCEPTOR_COUNT>
8

> <JCHEM_DONOR_COUNT>
4

> <JCHEM_ACIDIC_PKA>
1.97

> <JCHEM_PHYSIOLOGICAL_CHARGE>
-4

> <ALOGPS_LOGP>
0.8

> <JCHEM_LOGP>
0.6

> <ALOGPS_LOGS>
-2.6

> <JCHEM_POLARIZABILITY>
21.35

> <JCHEM_POLAR_SURFACE_AREA>
149.2

> <JCHEM_REFRACTIVITY>
55.08

> <JCHEM_ROTATABLE_BOND_COUNT>
4

> <ALOGPS_SOLUBILITY>
6.53e-01 g/l __ 

$$$$
