
  Mrv0541 02231216202D          

 13 12  0  0  1  0            999 V2000
    2.9980    2.5559    0.0000 C   0  0  0  0  0  0  0  0  0  0  0  0
    3.7125    2.1434    0.0000 C   0  0  0  0  0  0  0  0  0  0  0  0
    4.4270    2.5559    0.0000 C   0  0  0  0  0  0  0  0  0  0  0  0
    5.1414    2.1434    0.0000 C   0  0  0  0  0  0  0  0  0  0  0  0
    5.8559    2.5559    0.0000 C   0  0  1  0  0  0  0  0  0  0  0  0
    6.5704    2.1434    0.0000 C   0  0  0  0  0  0  0  0  0  0  0  0
    7.2849    2.5559    0.0000 N   0  0  0  0  0  0  0  0  0  0  0  0
    7.2849    3.3809    0.0000 O   0  0  0  0  0  0  0  0  0  0  0  0
    7.9993    2.1434    0.0000 C   0  0  0  0  0  0  0  0  0  0  0  0
    8.7138    2.5559    0.0000 O   0  0  0  0  0  0  0  0  0  0  0  0
    5.8559    3.3809    0.0000 C   0  0  0  0  0  0  0  0  0  0  0  0
    6.5704    3.7934    0.0000 O   0  0  0  0  0  0  0  0  0  0  0  0
    5.1414    3.7934    0.0000 O   0  0  0  0  0  0  0  0  0  0  0  0
  1  2  1  0  0  0  0
  2  3  1  0  0  0  0
  3  4  1  0  0  0  0
  4  5  1  0  0  0  0
  5  6  1  0  0  0  0
  6  7  1  0  0  0  0
  7  8  1  0  0  0  0
  7  9  1  0  0  0  0
  9 10  2  0  0  0  0
  5 11  1  6  0  0  0
 11 12  1  0  0  0  0
 11 13  2  0  0  0  0
M  END
> <DRUGBANK_ID>
DB02625

> <DRUG_GROUPS>
experimental

> <GENERIC_NAME>
(2r)-2-{[Formyl(Hydroxy)Amino]Methyl}Hexanoic Acid

> <CHEMICAL_FORMULA>
C8H15NO4

> <MOLECULAR_WEIGHT>
189.209

> <EXACT_MASS>
189.100107973

> <IUPAC_NAME>
(2S)-2-[(N-hydroxyformamido)methyl]hexanoic acid

> <IUPAC_TRADITIONAL_NAME>
(2S)-2-[(N-hydroxyformamido)methyl]hexanoic acid

> <INCHI_IDENTIFIER>
InChI=1S/C8H15NO4/c1-2-3-4-7(8(11)12)5-9(13)6-10/h6-7,13H,2-5H2,1H3,(H,11,12)/t7-/m0/s1

> <INCHI_KEY>
InChIKey=NOSUUIPGNMAALM-ZETCQYMHSA-N

> <SMILES>
CCCC[C@@H](CN(O)C=O)C(O)=O

> <JCHEM_ACCEPTOR_COUNT>
4

> <JCHEM_DONOR_COUNT>
2

> <JCHEM_ACIDIC_PKA>
4.4

> <JCHEM_BASIC_PKA>
-5.7

> <JCHEM_PHYSIOLOGICAL_CHARGE>
-1

> <ALOGPS_LOGP>
0.38

> <JCHEM_LOGP>
0.73

> <ALOGPS_LOGS>
-1.1

> <JCHEM_POLARIZABILITY>
19.17

> <JCHEM_POLAR_SURFACE_AREA>
77.84

> <JCHEM_REFRACTIVITY>
45.8

> <JCHEM_ROTATABLE_BOND_COUNT>
6

> <ALOGPS_SOLUBILITY>
1.64e+01 g/l __ 

$$$$
