
  Mrv0541 02231216102D          

 52 53  0  0  1  0            999 V2000
    3.9448   -1.1948    0.0000 C   0  0  0  0  0  0  0  0  0  0  0  0
    4.3814   -0.4948    0.0000 C   0  0  0  0  0  0  0  0  0  0  0  0
    5.2059   -0.5229    0.0000 C   0  0  0  0  0  0  0  0  0  0  0  0
    3.9854    0.2484    0.0000 C   0  0  0  0  0  0  0  0  0  0  0  0
    3.2166    0.6613    0.0000 C   0  0  2  0  0  0  0  0  0  0  0  0
    2.1813    0.6399    0.0000 N   0  0  0  0  0  0  0  0  0  0  0  0
    1.3452    0.9909    0.0000 C   0  0  0  0  0  0  0  0  0  0  0  0
    1.3243    0.1812    0.0000 O   0  0  0  0  0  0  0  0  0  0  0  0
    0.6407    1.5811    0.0000 C   0  0  1  0  0  0  0  0  0  0  0  0
    0.7424    2.3998    0.0000 C   0  0  0  0  0  0  0  0  0  0  0  0
    1.5023    2.7211    0.0000 C   0  0  0  0  0  0  0  0  0  0  0  0
    1.7065    3.5304    0.0000 O   0  0  0  0  0  0  0  0  0  0  0  0
    2.1605    2.2237    0.0000 N   0  0  0  0  0  0  0  0  0  0  0  0
    2.0588    1.4050    0.0000 C   0  0  0  0  0  0  0  0  0  0  0  0
    2.7170    0.9076    0.0000 C   0  0  0  0  0  0  0  0  0  0  0  0
    2.6153    0.0889    0.0000 C   0  0  0  0  0  0  0  0  0  0  0  0
    3.2735   -0.4085    0.0000 C   0  0  0  0  0  0  0  0  0  0  0  0
    3.1718   -1.2272    0.0000 C   0  0  0  0  0  0  0  0  0  0  0  0
    2.4120   -1.5486    0.0000 C   0  0  0  0  0  0  0  0  0  0  0  0
    1.7538   -1.0511    0.0000 O   0  0  0  0  0  0  0  0  0  0  0  0
    0.9939   -1.3724    0.0000 C   0  0  0  0  0  0  0  0  0  0  0  0
    0.7532   -2.1747    0.0000 O   0  0  0  0  0  0  0  0  0  0  0  0
    0.3357   -0.8750    0.0000 N   0  0  0  0  0  0  0  0  0  0  0  0
    0.4374   -0.0563    0.0000 C   0  0  1  0  0  0  0  0  0  0  0  0
   -0.4355   -0.2051    0.0000 C   0  0  0  0  0  0  0  0  0  0  0  0
   -0.9136    0.5919    0.0000 C   0  0  0  0  0  0  0  0  0  0  0  0
   -1.1526   -0.6897    0.0000 C   0  0  0  0  0  0  0  0  0  0  0  0
   -0.2208    0.4411    0.0000 C   0  0  0  0  0  0  0  0  0  0  0  0
   -1.0683   -0.0240    0.0000 O   0  0  0  0  0  0  0  0  0  0  0  0
   -0.1191    1.2598    0.0000 N   0  0  0  0  0  0  0  0  0  0  0  0
    3.7450    1.4242    0.0000 C   0  0  2  0  0  0  0  0  0  0  0  0
    3.7457    2.2963    0.0000 O   0  0  0  0  0  0  0  0  0  0  0  0
    4.6211    1.5748    0.0000 C   0  0  0  0  0  0  0  0  0  0  0  0
    5.4417    1.5201    0.0000 C   0  0  2  0  0  0  0  0  0  0  0  0
    5.6133    2.3834    0.0000 C   0  0  0  0  0  0  0  0  0  0  0  0
    5.7200    0.6756    0.0000 C   0  0  0  0  0  0  0  0  0  0  0  0
    5.5561   -0.1465    0.0000 O   0  0  0  0  0  0  0  0  0  0  0  0
    6.5606    0.7083    0.0000 N   0  0  0  0  0  0  0  0  0  0  0  0
    7.2487    0.2325    0.0000 C   0  0  1  0  0  0  0  0  0  0  0  0
    7.0467   -0.6163    0.0000 C   0  0  0  0  0  0  0  0  0  0  0  0
    7.5085   -1.3002    0.0000 C   0  0  0  0  0  0  0  0  0  0  0  0
    6.6157   -1.3623    0.0000 C   0  0  0  0  0  0  0  0  0  0  0  0
    7.8380    0.8736    0.0000 C   0  0  0  0  0  0  0  0  0  0  0  0
    7.9201    1.7329    0.0000 O   0  0  0  0  0  0  0  0  0  0  0  0
    8.5795    0.4289    0.0000 N   0  0  0  0  0  0  0  0  0  0  0  0
    9.3840    0.6399    0.0000 C   0  0  0  0  0  0  0  0  0  0  0  0
    9.8837   -0.0619    0.0000 C   0  0  0  0  0  0  0  0  0  0  0  0
   10.6722    0.1807    0.0000 C   0  0  0  0  0  0  0  0  0  0  0  0
   11.2765   -0.3808    0.0000 C   0  0  0  0  0  0  0  0  0  0  0  0
   11.0924   -1.1850    0.0000 C   0  0  0  0  0  0  0  0  0  0  0  0
   10.3039   -1.4277    0.0000 C   0  0  0  0  0  0  0  0  0  0  0  0
    9.6995   -0.8661    0.0000 C   0  0  0  0  0  0  0  0  0  0  0  0
  1  2  1  0  0  0  0
  2  3  1  0  0  0  0
  2  4  1  0  0  0  0
  4  5  1  0  0  0  0
  5  6  1  6  0  0  0
  6  7  1  0  0  0  0
  7  8  2  0  0  0  0
  9  7  1  6  0  0  0
  9 10  1  0  0  0  0
 10 11  1  0  0  0  0
 11 12  2  0  0  0  0
 11 13  1  0  0  0  0
 13 14  1  0  0  0  0
 14 15  1  0  0  0  0
 15 16  1  0  0  0  0
 16 17  1  0  0  0  0
 17 18  1  0  0  0  0
 18 19  1  0  0  0  0
 19 20  1  0  0  0  0
 20 21  1  0  0  0  0
 21 22  2  0  0  0  0
 21 23  1  0  0  0  0
 23 24  1  0  0  0  0
 24 25  1  6  0  0  0
 25 26  1  0  0  0  0
 25 27  1  0  0  0  0
 24 28  1  0  0  0  0
 28 29  2  0  0  0  0
 28 30  1  0  0  0  0
  9 30  1  0  0  0  0
  5 31  1  0  0  0  0
 31 32  1  6  0  0  0
 31 33  1  0  0  0  0
 33 34  1  0  0  0  0
 34 35  1  6  0  0  0
 34 36  1  0  0  0  0
 36 37  2  0  0  0  0
 36 38  1  0  0  0  0
 39 38  1  6  0  0  0
 39 40  1  0  0  0  0
 40 41  1  0  0  0  0
 40 42  1  0  0  0  0
 39 43  1  0  0  0  0
 43 44  2  0  0  0  0
 43 45  1  0  0  0  0
 45 46  1  0  0  0  0
 46 47  1  0  0  0  0
 47 48  2  0  0  0  0
 48 49  1  0  0  0  0
 49 50  2  0  0  0  0
 50 51  1  0  0  0  0
 51 52  2  0  0  0  0
 47 52  1  0  0  0  0
M  END
> <DRUGBANK_ID>
DB02378

> <DRUG_GROUPS>
experimental

> <GENERIC_NAME>
MMI-175

> <CHEMICAL_FORMULA>
C38H62N6O8

> <MOLECULAR_WEIGHT>
730.9343

> <EXACT_MASS>
730.46291299

> <IUPAC_NAME>
(2S,4R,5S)-N-[(1S)-1-(benzylcarbamoyl)-2-methylpropyl]-4-hydroxy-2,7-dimethyl-5-{[(4S,7R)-2,5,9-trioxo-4-(propan-2-yl)-1-oxa-3,6,10-triazacyclohexadecan-7-yl]formamido}octanamide

> <IUPAC_TRADITIONAL_NAME>
(2S,4R,5S)-N-[(1S)-1-(benzylcarbamoyl)-2-methylpropyl]-4-hydroxy-5-{[(4S,7R)-4-isopropyl-2,5,9-trioxo-1-oxa-3,6,10-triazacyclohexadecan-7-yl]formamido}-2,7-dimethyloctanamide

> <INCHI_IDENTIFIER>
InChI=1S/C38H62N6O8/c1-23(2)19-28(30(45)20-26(7)34(47)43-32(24(3)4)36(49)40-22-27-15-11-10-12-16-27)41-35(48)29-21-31(46)39-17-13-8-9-14-18-52-38(51)44-33(25(5)6)37(50)42-29/h10-12,15-16,23-26,28-30,32-33,45H,8-9,13-14,17-22H2,1-7H3,(H,39,46)(H,40,49)(H,41,48)(H,42,50)(H,43,47)(H,44,51)/t26-,28-,29+,30+,32-,33-/m0/s1

> <INCHI_KEY>
InChIKey=QJAPFAZHNSZLJE-KXZVVICLSA-N

> <SMILES>
CC(C)C[C@H](NC(=O)[C@H]1CC(=O)NCCCCCCOC(=O)N[C@@H](C(C)C)C(=O)N1)[C@H](O)C[C@H](C)C(=O)N[C@@H](C(C)C)C(=O)NCC1=CC=CC=C1

> <JCHEM_ACCEPTOR_COUNT>
7

> <JCHEM_DONOR_COUNT>
7

> <JCHEM_ACIDIC_PKA>
11.17

> <JCHEM_BASIC_PKA>
-0.0096

> <JCHEM_PHYSIOLOGICAL_CHARGE>
0

> <ALOGPS_LOGP>
2.93

> <JCHEM_LOGP>
2.78

> <ALOGPS_LOGS>
-4.7

> <JCHEM_POLARIZABILITY>
79.34

> <JCHEM_POLAR_SURFACE_AREA>
204.06

> <JCHEM_REFRACTIVITY>
195.87

> <JCHEM_ROTATABLE_BOND_COUNT>
14

> <ALOGPS_SOLUBILITY>
1.55e-02 g/l __ 

$$$$
