
  Mrv0541 02231216322D          

 20 22  0  0  1  0            999 V2000
    3.9934    2.4750    0.0000 C   0  0  0  0  0  0  0  0  0  0  0  0
    3.2789    2.0625    0.0000 S   0  0  0  0  0  0  0  0  0  0  0  0
    3.2789    1.2375    0.0000 C   0  0  0  0  0  0  0  0  0  0  0  0
    3.9934    0.8250    0.0000 N   0  0  0  0  0  0  0  0  0  0  0  0
    3.9934    0.0000    0.0000 C   0  0  0  0  0  0  0  0  0  0  0  0
    3.2789   -0.4125    0.0000 N   0  0  0  0  0  0  0  0  0  0  0  0
    2.5645    0.0000    0.0000 C   0  0  0  0  0  0  0  0  0  0  0  0
    2.5645    0.8250    0.0000 C   0  0  0  0  0  0  0  0  0  0  0  0
    1.7798    1.0799    0.0000 N   0  0  0  0  0  0  0  0  0  0  0  0
    1.2949    0.4125    0.0000 C   0  0  0  0  0  0  0  0  0  0  0  0
    1.7798   -0.2549    0.0000 N   0  0  0  0  0  0  0  0  0  0  0  0
    1.5249   -1.0396    0.0000 C   0  0  2  0  0  0  0  0  0  0  0  0
    2.0098   -1.7070    0.0000 O   0  0  0  0  0  0  0  0  0  0  0  0
    1.5249   -2.3744    0.0000 C   0  0  1  0  0  0  0  0  0  0  0  0
    1.7798   -3.1591    0.0000 C   0  0  0  0  0  0  0  0  0  0  0  0
    2.5868   -3.3306    0.0000 O   0  0  0  0  0  0  0  0  0  0  0  0
    0.7403   -2.1195    0.0000 C   0  0  2  0  0  0  0  0  0  0  0  0
    0.0728   -2.6044    0.0000 O   0  0  0  0  0  0  0  0  0  0  0  0
    0.7403   -1.2945    0.0000 C   0  0  1  0  0  0  0  0  0  0  0  0
    0.0728   -0.8096    0.0000 O   0  0  0  0  0  0  0  0  0  0  0  0
  1  2  1  0  0  0  0
  2  3  1  0  0  0  0
  3  4  2  0  0  0  0
  4  5  1  0  0  0  0
  5  6  2  0  0  0  0
  6  7  1  0  0  0  0
  7  8  2  0  0  0  0
  3  8  1  0  0  0  0
  8  9  1  0  0  0  0
  9 10  2  0  0  0  0
 10 11  1  0  0  0  0
  7 11  1  0  0  0  0
 12 11  1  6  0  0  0
 12 13  1  0  0  0  0
 13 14  1  0  0  0  0
 14 15  1  1  0  0  0
 15 16  1  0  0  0  0
 14 17  1  0  0  0  0
 17 18  1  6  0  0  0
 17 19  1  0  0  0  0
 12 19  1  0  0  0  0
 19 20  1  1  0  0  0
M  END
> <DRUGBANK_ID>
DB02896

> <DRUG_GROUPS>
experimental

> <GENERIC_NAME>
Methylthioinosine

> <SYNONYMS>


> <CHEMICAL_FORMULA>
C11H14N4O4S

> <MOLECULAR_WEIGHT>
298.318

> <EXACT_MASS>
298.073575646

> <IUPAC_NAME>
(2S,3R,4R,5R)-2-(hydroxymethyl)-5-[6-(methylsulfanyl)-9H-purin-9-yl]oxolane-3,4-diol

> <IUPAC_TRADITIONAL_NAME>
methylthioinosine

> <INCHI_IDENTIFIER>
InChI=1S/C11H14N4O4S/c1-20-10-6-9(12-3-13-10)15(4-14-6)11-8(18)7(17)5(2-16)19-11/h3-5,7-8,11,16-18H,2H2,1H3/t5-,7-,8+,11+/m0/s1

> <INCHI_KEY>
InChIKey=ZDRFDHHANOYUTE-WOIOKPISSA-N

> <SMILES>
CSC1=NC=NC2=C1N=CN2[C@@H]1O[C@@H](CO)[C@H](O)[C@H]1O

> <JCHEM_ACCEPTOR_COUNT>
7

> <JCHEM_DONOR_COUNT>
3

> <JCHEM_ACIDIC_PKA>
12.45

> <JCHEM_BASIC_PKA>
4.5

> <JCHEM_PHYSIOLOGICAL_CHARGE>
0

> <ALOGPS_LOGP>
-0.4

> <JCHEM_LOGP>
-0.63

> <ALOGPS_LOGS>
-1.6

> <JCHEM_POLARIZABILITY>
28.79

> <JCHEM_POLAR_SURFACE_AREA>
113.52

> <JCHEM_REFRACTIVITY>
71.25

> <JCHEM_ROTATABLE_BOND_COUNT>
3

> <ALOGPS_SOLUBILITY>
8.21e+00 g/l __ 

$$$$
