
  Mrv0541 02231215582D          

 31 33  0  0  1  0            999 V2000
   -6.4302   -1.2375    0.0000 O    0  0  0  0  0  0  0  0  0  0  0  0
   -5.7158   -1.6500    0.0000 C    0  0  0  0  0  0  0  0  0  0  0  0
   -5.7158   -2.4750    0.0000 O    0  0  0  0  0  0  0  0  0  0  0  0
   -5.0013   -1.2375    0.0000 C    0  0  0  0  0  0  0  0  0  0  0  0
   -4.2868   -1.6500    0.0000 C    0  0  0  0  0  0  0  0  0  0  0  0
   -3.5724   -1.2375    0.0000 C    0  0  0  0  0  0  0  0  0  0  0  0
   -2.8579   -1.6500    0.0000 C    0  0  0  0  0  0  0  0  0  0  0  0
   -2.1434   -1.2375    0.0000 Br   0  0  0  0  0  0  0  0  0  0  0  0
   -2.8579   -2.4750    0.0000 C    0  0  0  0  0  0  0  0  0  0  0  0
   -2.1434   -2.8875    0.0000 O    0  0  0  0  0  0  0  0  0  0  0  0
   -1.4289   -2.4750    0.0000 C    0  0  0  0  0  0  0  0  0  0  0  0
   -1.4289   -1.6500    0.0000 C    0  0  0  0  0  0  0  0  0  0  0  0
   -0.7145   -1.2375    0.0000 C    0  0  0  0  0  0  0  0  0  0  0  0
    0.0000   -1.6500    0.0000 C    0  0  0  0  0  0  0  0  0  0  0  0
    0.7145   -1.2375    0.0000 O    0  0  0  0  0  0  0  0  0  0  0  0
    0.0000   -2.4750    0.0000 C    0  0  0  0  0  0  0  0  0  0  0  0
   -0.7145   -2.8875    0.0000 C    0  0  0  0  0  0  0  0  0  0  0  0
    0.7145   -2.8875    0.0000 C    0  0  1  0  0  0  0  0  0  0  0  0
    0.7145   -3.7125    0.0000 O    0  0  0  0  0  0  0  0  0  0  0  0
    1.4289   -2.4750    0.0000 N    0  0  0  0  0  0  0  0  0  0  0  0
    2.1434   -2.8875    0.0000 C    0  0  0  0  0  0  0  0  0  0  0  0
    2.8579   -2.4750    0.0000 C    0  0  0  0  0  0  0  0  0  0  0  0
    3.5724   -2.8875    0.0000 C    0  0  0  0  0  0  0  0  0  0  0  0
    4.2868   -2.4750    0.0000 C    0  0  0  0  0  0  0  0  0  0  0  0
    5.0013   -2.8875    0.0000 C    0  0  0  0  0  0  0  0  0  0  0  0
    5.0013   -3.7125    0.0000 C    0  0  0  0  0  0  0  0  0  0  0  0
    4.2868   -4.1250    0.0000 C    0  0  0  0  0  0  0  0  0  0  0  0
    3.5724   -3.7125    0.0000 C    0  0  0  0  0  0  0  0  0  0  0  0
   -3.5724   -2.8875    0.0000 C    0  0  0  0  0  0  0  0  0  0  0  0
   -3.5724   -3.7125    0.0000 Br   0  0  0  0  0  0  0  0  0  0  0  0
   -4.2868   -2.4750    0.0000 C    0  0  0  0  0  0  0  0  0  0  0  0
  1  2  1  0  0  0  0
  2  3  1  0  0  0  0
  2  4  1  0  0  0  0
  4  5  1  0  0  0  0
  5  6  2  0  0  0  0
  6  7  1  0  0  0  0
  7  8  1  0  0  0  0
  7  9  2  0  0  0  0
  9 10  1  0  0  0  0
 10 11  1  0  0  0  0
 11 12  2  0  0  0  0
 12 13  1  0  0  0  0
 13 14  2  0  0  0  0
 14 15  1  0  0  0  0
 14 16  1  0  0  0  0
 16 17  2  0  0  0  0
 11 17  1  0  0  0  0
 16 18  1  0  0  0  0
 18 19  1  6  0  0  0
 18 20  1  0  0  0  0
 20 21  1  0  0  0  0
 21 22  1  0  0  0  0
 22 23  1  0  0  0  0
 23 24  2  0  0  0  0
 24 25  1  0  0  0  0
 25 26  2  0  0  0  0
 26 27  1  0  0  0  0
 27 28  2  0  0  0  0
 23 28  1  0  0  0  0
  9 29  1  0  0  0  0
 29 30  1  0  0  0  0
 29 31  2  0  0  0  0
  5 31  1  0  0  0  0
M  END
> <DRUGBANK_ID>
DB02106

> <DRUG_GROUPS>
experimental

> <GENERIC_NAME>
[3,5-Dibromo-4-(4-Hydroxy-3-Phenethylcarbamoyl-Phenoxy)-Phenyl]-Acetic Acid

> <CHEMICAL_FORMULA>
C23H23Br2NO5

> <MOLECULAR_WEIGHT>
553.24

> <EXACT_MASS>
550.994298145

> <IUPAC_NAME>
2-(3,5-dibromo-4-{4-hydroxy-3-[(R)-hydroxy[(2-phenylethyl)amino]methyl]phenoxy}phenyl)ethane-1,1-diol

> <IUPAC_TRADITIONAL_NAME>
2-(3,5-dibromo-4-{4-hydroxy-3-[(R)-hydroxy[(2-phenylethyl)amino]methyl]phenoxy}phenyl)ethane-1,1-diol

> <INCHI_IDENTIFIER>
InChI=1S/C23H23Br2NO5/c24-18-10-15(12-21(28)29)11-19(25)22(18)31-16-6-7-20(27)17(13-16)23(30)26-9-8-14-4-2-1-3-5-14/h1-7,10-11,13,21,23,26-30H,8-9,12H2/t23-/m1/s1

> <INCHI_KEY>
InChIKey=KIRQJXNQGZAKGR-HSZRJFAPSA-N

> <SMILES>
OC(O)CC1=CC(Br)=C(OC2=CC=C(O)C(=C2)[C@@H](O)NCCC2=CC=CC=C2)C(Br)=C1

> <JCHEM_ACCEPTOR_COUNT>
5

> <JCHEM_DONOR_COUNT>
5

> <JCHEM_ACIDIC_PKA>
8.69

> <JCHEM_BASIC_PKA>
9.73

> <JCHEM_PHYSIOLOGICAL_CHARGE>
1

> <ALOGPS_LOGP>
3.82

> <JCHEM_LOGP>
4.3

> <ALOGPS_LOGS>
-4.8

> <JCHEM_POLARIZABILITY>
49.37

> <JCHEM_POLAR_SURFACE_AREA>
102.18

> <JCHEM_REFRACTIVITY>
125.88

> <JCHEM_ROTATABLE_BOND_COUNT>
9

> <ALOGPS_SOLUBILITY>
8.16e-03 g/l __ 

$$$$
