
  Mrv0541 02231216042D          

 41 44  0  0  1  0            999 V2000
    0.9845   -5.1157    0.0000 C   0  0  0  0  0  0  0  0  0  0  0  0
    1.2546   -4.3361    0.0000 C   0  0  0  0  0  0  0  0  0  0  0  0
    0.7145   -3.7125    0.0000 C   0  0  0  0  0  0  0  0  0  0  0  0
    0.9845   -2.9329    0.0000 C   0  0  1  0  0  0  0  0  0  0  0  0
    1.7946   -2.7770    0.0000 N   0  0  0  0  0  0  0  0  0  0  0  0
    2.3347   -3.4007    0.0000 C   0  0  0  0  0  0  0  0  0  0  0  0
    2.0647   -4.1802    0.0000 O   0  0  0  0  0  0  0  0  0  0  0  0
    3.1449   -3.2448    0.0000 C   0  0  1  0  0  0  0  0  0  0  0  0
    3.4149   -2.4652    0.0000 C   0  0  0  0  0  0  0  0  0  0  0  0
    2.8748   -1.8416    0.0000 C   0  0  0  0  0  0  0  0  0  0  0  0
    2.0647   -1.9975    0.0000 C   0  0  0  0  0  0  0  0  0  0  0  0
    1.5246   -1.3738    0.0000 C   0  0  0  0  0  0  0  0  0  0  0  0
    1.7946   -0.5943    0.0000 C   0  0  0  0  0  0  0  0  0  0  0  0
    2.6048   -0.4384    0.0000 C   0  0  0  0  0  0  0  0  0  0  0  0
    3.1449   -1.0620    0.0000 C   0  0  0  0  0  0  0  0  0  0  0  0
    3.6850   -3.8684    0.0000 N   0  0  0  0  0  0  0  0  0  0  0  0
    4.4951   -3.7125    0.0000 C   0  0  0  0  0  0  0  0  0  0  0  0
    5.0352   -4.3361    0.0000 O   0  0  0  0  0  0  0  0  0  0  0  0
    4.7651   -2.9329    0.0000 N   0  0  0  0  0  0  0  0  0  0  0  0
    4.2251   -2.3093    0.0000 C   0  0  0  0  0  0  0  0  0  0  0  0
    4.4951   -1.5298    0.0000 C   0  0  0  0  0  0  0  0  0  0  0  0
    5.3052   -1.3738    0.0000 C   0  0  0  0  0  0  0  0  0  0  0  0
    5.8453   -1.9975    0.0000 C   0  0  0  0  0  0  0  0  0  0  0  0
    5.5753   -2.7770    0.0000 C   0  0  0  0  0  0  0  0  0  0  0  0
    5.5753   -0.5943    0.0000 N   0  0  0  0  0  0  0  0  0  0  0  0
    5.0352    0.0293    0.0000 C   0  0  0  0  0  0  0  0  0  0  0  0
    5.3052    0.8089    0.0000 C   0  0  0  0  0  0  0  0  0  0  0  0
    6.1154    0.9648    0.0000 O   0  0  0  0  0  0  0  0  0  0  0  0
    6.6555    0.3412    0.0000 C   0  0  0  0  0  0  0  0  0  0  0  0
    6.3854   -0.4384    0.0000 C   0  0  0  0  0  0  0  0  0  0  0  0
    0.4444   -2.3093    0.0000 C   0  0  0  0  0  0  0  0  0  0  0  0
   -0.3657   -2.4652    0.0000 C   0  0  0  0  0  0  0  0  0  0  0  0
   -0.9058   -1.8416    0.0000 S   0  0  0  0  0  0  0  0  0  0  0  0
   -0.2822   -1.3015    0.0000 O   0  0  0  0  0  0  0  0  0  0  0  0
   -1.5294   -2.3817    0.0000 O   0  0  0  0  0  0  0  0  0  0  0  0
   -1.4459   -1.2179    0.0000 C   0  0  0  0  0  0  0  0  0  0  0  0
   -2.2560   -1.3738    0.0000 C   0  0  0  0  0  0  0  0  0  0  0  0
   -2.7961   -0.7502    0.0000 C   0  0  0  0  0  0  0  0  0  0  0  0
   -2.5261    0.0293    0.0000 C   0  0  0  0  0  0  0  0  0  0  0  0
   -1.7159    0.1853    0.0000 C   0  0  0  0  0  0  0  0  0  0  0  0
   -1.1758   -0.4384    0.0000 C   0  0  0  0  0  0  0  0  0  0  0  0
  1  2  1  0  0  0  0
  2  3  1  0  0  0  0
  3  4  1  0  0  0  0
  4  5  1  6  0  0  0
  5  6  1  0  0  0  0
  6  7  2  0  0  0  0
  6  8  1  0  0  0  0
  8  9  1  0  0  0  0
  9 10  1  0  0  0  0
 10 11  2  0  0  0  0
 11 12  1  0  0  0  0
 12 13  2  0  0  0  0
 13 14  1  0  0  0  0
 14 15  2  0  0  0  0
 10 15  1  0  0  0  0
  8 16  1  1  0  0  0
 16 17  1  0  0  0  0
 17 18  2  0  0  0  0
 17 19  1  0  0  0  0
 19 20  1  0  0  0  0
 20 21  1  0  0  0  0
 21 22  1  0  0  0  0
 22 23  1  0  0  0  0
 23 24  1  0  0  0  0
 19 24  1  0  0  0  0
 22 25  1  0  0  0  0
 25 26  1  0  0  0  0
 26 27  1  0  0  0  0
 27 28  1  0  0  0  0
 28 29  1  0  0  0  0
 29 30  1  0  0  0  0
 25 30  1  0  0  0  0
  4 31  1  0  0  0  0
 31 32  2  0  0  0  0
 32 33  1  0  0  0  0
 33 34  2  0  0  0  0
 33 35  2  0  0  0  0
 33 36  1  0  0  0  0
 36 37  2  0  0  0  0
 37 38  1  0  0  0  0
 38 39  2  0  0  0  0
 39 40  1  0  0  0  0
 40 41  2  0  0  0  0
 36 41  1  0  0  0  0
M  END
> <DRUGBANK_ID>
DB02243

> <DRUG_GROUPS>
experimental

> <GENERIC_NAME>
4-Morpholin-4-Yl-Piperidine-1-Carboxylic Acid [1-(3-Benzenesulfonyl-1-Propyl-Allylcarbamoyl)-2-Phenylethyl]-Amide

> <CHEMICAL_FORMULA>
C31H42N4O5S

> <MOLECULAR_WEIGHT>
582.754

> <EXACT_MASS>
582.287591164

> <IUPAC_NAME>
(2R)-N-[(1E,3R)-1-(benzenesulfonyl)hex-1-en-3-yl]-2-{[(E)-[4-(morpholin-4-yl)piperidin-1-yl]carbonyl]amino}-3-phenylpropanamide

> <IUPAC_TRADITIONAL_NAME>
(2R)-N-[(1E,3R)-1-(benzenesulfonyl)hex-1-en-3-yl]-2-[(E)-[4-(morpholin-4-yl)piperidin-1-yl]carbonylamino]-3-phenylpropanamide

> <INCHI_IDENTIFIER>
InChI=1S/C31H42N4O5S/c1-2-9-26(16-23-41(38,39)28-12-7-4-8-13-28)32-30(36)29(24-25-10-5-3-6-11-25)33-31(37)35-17-14-27(15-18-35)34-19-21-40-22-20-34/h3-8,10-13,16,23,26-27,29H,2,9,14-15,17-22,24H2,1H3,(H,32,36)(H,33,37)/b23-16+/t26-,29-/m1/s1

> <INCHI_KEY>
InChIKey=OFBHNKJTHNHXQT-OIWPGSPOSA-N

> <SMILES>
CCC[C@H](\C=C\S(=O)(=O)C1=CC=CC=C1)NC(=O)[C@H](NC(=O)N1CCC(CC1)N1CCOCC1)CC1=CC=CC=C1

> <JCHEM_ACCEPTOR_COUNT>
6

> <JCHEM_DONOR_COUNT>
2

> <JCHEM_ACIDIC_PKA>
13.91

> <JCHEM_BASIC_PKA>
7.38

> <JCHEM_PHYSIOLOGICAL_CHARGE>
1

> <ALOGPS_LOGP>
2.73

> <JCHEM_LOGP>
2.79

> <ALOGPS_LOGS>
-4.6

> <JCHEM_POLARIZABILITY>
62.76

> <JCHEM_POLAR_SURFACE_AREA>
108.05

> <JCHEM_REFRACTIVITY>
160.6

> <JCHEM_ROTATABLE_BOND_COUNT>
11

> <ALOGPS_SOLUBILITY>
1.58e-02 g/l __ 

$$$$
