
  Mrv0541 02231216222D          

 12 12  0  0  0  0            999 V2000
   -0.7145   -1.2375    0.0000 O   0  5  0  0  0  0  0  0  0  0  0  0
   -0.7145   -0.4125    0.0000 N   0  3  0  0  0  0  0  0  0  0  0  0
   -1.4289    0.0000    0.0000 O   0  0  0  0  0  0  0  0  0  0  0  0
    0.0000    0.0000    0.0000 C   0  0  0  0  0  0  0  0  0  0  0  0
    0.0000    0.8250    0.0000 C   0  0  0  0  0  0  0  0  0  0  0  0
    0.7145    1.2375    0.0000 C   0  0  0  0  0  0  0  0  0  0  0  0
    1.4289    0.8250    0.0000 C   0  0  0  0  0  0  0  0  0  0  0  0
    1.4289    0.0000    0.0000 C   0  0  0  0  0  0  0  0  0  0  0  0
    0.7145   -0.4125    0.0000 C   0  0  0  0  0  0  0  0  0  0  0  0
    0.7145    2.0625    0.0000 N   0  3  0  0  0  0  0  0  0  0  0  0
    0.0000    2.4750    0.0000 O   0  5  0  0  0  0  0  0  0  0  0  0
    1.4289    2.4750    0.0000 O   0  0  0  0  0  0  0  0  0  0  0  0
  1  2  1  0  0  0  0
  2  3  2  0  0  0  0
  2  4  1  0  0  0  0
  4  5  2  0  0  0  0
  5  6  1  0  0  0  0
  6  7  2  0  0  0  0
  7  8  1  0  0  0  0
  8  9  2  0  0  0  0
  4  9  1  0  0  0  0
  6 10  1  0  0  0  0
 10 11  1  0  0  0  0
 10 12  2  0  0  0  0
M  END
> <DRUGBANK_ID>
DB02680

> <DRUG_GROUPS>
experimental

> <GENERIC_NAME>
Dinitrophenylene

> <CHEMICAL_FORMULA>
C6H4N2O4

> <MOLECULAR_WEIGHT>
168.107

> <EXACT_MASS>
168.017106626

> <IUPAC_NAME>
1,3-dinitrobenzene

> <IUPAC_TRADITIONAL_NAME>
dinitrophenylene

> <INCHI_IDENTIFIER>
InChI=1S/C6H4N2O4/c9-7(10)5-2-1-3-6(4-5)8(11)12/h1-4H

> <INCHI_KEY>
InChIKey=WDCYWAQPCXBPJA-UHFFFAOYSA-N

> <SMILES>
[O-][N+](=O)C1=CC(=CC=C1)[N+]([O-])=O

> <JCHEM_ACCEPTOR_COUNT>
4

> <JCHEM_DONOR_COUNT>
0

> <JCHEM_PHYSIOLOGICAL_CHARGE>
0

> <ALOGPS_LOGP>
1.7

> <JCHEM_LOGP>
1.85

> <ALOGPS_LOGS>
-3.1

> <JCHEM_POLARIZABILITY>
13.59

> <JCHEM_POLAR_SURFACE_AREA>
91.64

> <JCHEM_REFRACTIVITY>
40.71

> <JCHEM_ROTATABLE_BOND_COUNT>
2

> <ALOGPS_SOLUBILITY>
1.47e-01 g/l __ 

$$$$
