
  Mrv0541 02231216052D          

 20 19  0  0  1  0            999 V2000
   12.6177    4.8099    0.0000 N   0  0  0  0  0  0  0  0  0  0  0  0
   12.6177    3.9849    0.0000 C   0  0  1  0  0  0  0  0  0  0  0  0
   11.9033    3.5724    0.0000 C   0  0  0  0  0  0  0  0  0  0  0  0
   11.1888    3.9849    0.0000 C   0  0  0  0  0  0  0  0  0  0  0  0
   10.4743    3.5724    0.0000 C   0  0  0  0  0  0  0  0  0  0  0  0
    9.7599    3.9849    0.0000 N   0  0  0  0  0  0  0  0  0  0  0  0
    9.0454    3.5724    0.0000 C   0  0  0  0  0  0  0  0  0  0  0  0
    9.0454    2.7474    0.0000 N   0  0  0  0  0  0  0  0  0  0  0  0
    8.3309    3.9849    0.0000 N   0  0  0  0  0  0  0  0  0  0  0  0
    7.6164    3.5724    0.0000 C   0  0  2  0  0  0  0  0  0  0  0  0
    6.9020    3.9849    0.0000 C   0  0  0  0  0  0  0  0  0  0  0  0
    6.1875    3.5724    0.0000 C   0  0  0  0  0  0  0  0  0  0  0  0
    5.4730    3.9849    0.0000 O   0  0  0  0  0  0  0  0  0  0  0  0
    6.1875    2.7474    0.0000 O   0  0  0  0  0  0  0  0  0  0  0  0
    7.6164    2.7474    0.0000 C   0  0  0  0  0  0  0  0  0  0  0  0
    6.9020    2.3349    0.0000 O   0  0  0  0  0  0  0  0  0  0  0  0
    8.3309    2.3349    0.0000 O   0  0  0  0  0  0  0  0  0  0  0  0
   13.3322    3.5724    0.0000 C   0  0  0  0  0  0  0  0  0  0  0  0
   14.0467    3.9849    0.0000 O   0  0  0  0  0  0  0  0  0  0  0  0
   13.3322    2.7474    0.0000 O   0  0  0  0  0  0  0  0  0  0  0  0
  2  1  1  6  0  0  0
  2  3  1  0  0  0  0
  3  4  1  0  0  0  0
  4  5  1  0  0  0  0
  5  6  1  0  0  0  0
  6  7  1  0  0  0  0
  7  8  2  0  0  0  0
  7  9  1  0  0  0  0
 10  9  1  1  0  0  0
 10 11  1  0  0  0  0
 11 12  1  0  0  0  0
 12 13  1  0  0  0  0
 12 14  2  0  0  0  0
 10 15  1  0  0  0  0
 15 16  1  0  0  0  0
 15 17  2  0  0  0  0
  2 18  1  0  0  0  0
 18 19  1  0  0  0  0
 18 20  2  0  0  0  0
M  END
> <DRUGBANK_ID>
DB02267

> <DRUG_GROUPS>
experimental

> <GENERIC_NAME>
Argininosuccinate

> <CHEMICAL_FORMULA>
C10H18N4O6

> <MOLECULAR_WEIGHT>
290.2731

> <EXACT_MASS>
290.122634328

> <IUPAC_NAME>
(2R)-2-{3-[(4S)-4-amino-4-carboxybutyl]carbamimidamido}butanedioic acid

> <IUPAC_TRADITIONAL_NAME>
argininosuccinate

> <INCHI_IDENTIFIER>
InChI=1S/C10H18N4O6/c11-5(8(17)18)2-1-3-13-10(12)14-6(9(19)20)4-7(15)16/h5-6H,1-4,11H2,(H,15,16)(H,17,18)(H,19,20)(H3,12,13,14)/t5-,6+/m0/s1

> <INCHI_KEY>
InChIKey=KDZOASGQNOPSCU-NTSWFWBYSA-N

> <SMILES>
N[C@@H](CCCNC(=N)N[C@H](CC(O)=O)C(O)=O)C(O)=O

> <JCHEM_ACCEPTOR_COUNT>
10

> <JCHEM_DONOR_COUNT>
7

> <JCHEM_ACIDIC_PKA>
2.14

> <JCHEM_BASIC_PKA>
12.39

> <JCHEM_PHYSIOLOGICAL_CHARGE>
-1

> <ALOGPS_LOGP>
-3.2

> <JCHEM_LOGP>
-5.8

> <ALOGPS_LOGS>
-2.8

> <JCHEM_POLARIZABILITY>
27.52

> <JCHEM_POLAR_SURFACE_AREA>
185.83

> <JCHEM_REFRACTIVITY>
75.31

> <JCHEM_ROTATABLE_BOND_COUNT>
9

> <ALOGPS_SOLUBILITY>
4.56e-01 g/l __ 

$$$$
