TPD
  Mrv0541 02231216362D          

 19 20  0  0  0  0            999 V2000
   -0.4288    2.3036    0.0000 C   0  0  0  0  0  0  0  0  0  0  0  0
    0.6981   -1.0284    0.0000 C   0  0  0  0  0  0  0  0  0  0  0  0
    0.6981   -1.8534    0.0000 C   0  0  0  0  0  0  0  0  0  0  0  0
    1.3656   -2.3383    0.0000 C   0  0  0  0  0  0  0  0  0  0  0  0
    1.1106   -3.1230    0.0000 C   0  0  0  0  0  0  0  0  0  0  0  0
    0.2856   -3.1230    0.0000 C   0  0  0  0  0  0  0  0  0  0  0  0
   -1.3987    3.6385    0.0000 O   0  0  0  0  0  0  0  0  0  0  0  0
   -0.2463    3.4560    0.0000 O   0  0  0  0  0  0  0  0  0  0  0  0
   -1.5812    2.4861    0.0000 N   0  0  0  0  0  0  0  0  0  0  0  0
   -0.9138    2.9711    0.0000 S   0  0  0  0  0  0  0  0  0  0  0  0
    0.3962    2.3036    0.0000 C   0  0  0  0  0  0  0  0  0  0  0  0
    0.6511    1.5190    0.0000 C   0  0  0  0  0  0  0  0  0  0  0  0
   -0.0163    1.0341    0.0000 C   0  0  0  0  0  0  0  0  0  0  0  0
   -0.6838    1.5190    0.0000 S   0  0  0  0  0  0  0  0  0  0  0  0
   -0.0163    0.2091    0.0000 S   0  0  0  0  0  0  0  0  0  0  0  0
    0.8087    0.2091    0.0000 O   0  0  0  0  0  0  0  0  0  0  0  0
   -0.8413    0.2091    0.0000 O   0  0  0  0  0  0  0  0  0  0  0  0
   -0.0163   -0.6159    0.0000 N   0  0  0  0  0  0  0  0  0  0  0  0
    0.0307   -2.3383    0.0000 S   0  0  0  0  0  0  0  0  0  0  0  0
  1 10  1  0  0  0  0
  1 11  2  0  0  0  0
  1 14  1  0  0  0  0
  2  3  1  0  0  0  0
  2 18  1  0  0  0  0
  3  4  2  0  0  0  0
  3 19  1  0  0  0  0
  4  5  1  0  0  0  0
  5  6  2  0  0  0  0
  6 19  1  0  0  0  0
  7 10  2  0  0  0  0
  8 10  2  0  0  0  0
  9 10  1  0  0  0  0
 11 12  1  0  0  0  0
 12 13  2  0  0  0  0
 13 14  1  0  0  0  0
 13 15  1  0  0  0  0
 15 16  2  0  0  0  0
 15 17  2  0  0  0  0
 15 18  1  0  0  0  0
M  END
> <DRUGBANK_ID>
DB02986

> <DRUG_GROUPS>
experimental

> <GENERIC_NAME>
N-(2-Thienylmethyl)-2,5-Thiophenedisulfonamide

> <CHEMICAL_FORMULA>
C9H10N2O4S4

> <MOLECULAR_WEIGHT>
338.447

> <EXACT_MASS>
337.952339578

> <IUPAC_NAME>
2-N-(thiophen-2-ylmethyl)thiophene-2,5-disulfonamide

> <IUPAC_TRADITIONAL_NAME>
2-N-(thiophen-2-ylmethyl)thiophene-2,5-disulfonamide

> <INCHI_IDENTIFIER>
InChI=1S/C9H10N2O4S4/c10-18(12,13)8-3-4-9(17-8)19(14,15)11-6-7-2-1-5-16-7/h1-5,11H,6H2,(H2,10,12,13)

> <INCHI_KEY>
InChIKey=STOTVDLYLKWVJB-UHFFFAOYSA-N

> <SMILES>
NS(=O)(=O)C1=CC=C(S1)S(=O)(=O)NCC1=CC=CS1

> <JCHEM_ACCEPTOR_COUNT>
4

> <JCHEM_DONOR_COUNT>
2

> <JCHEM_ACIDIC_PKA>
7.9

> <JCHEM_BASIC_PKA>
-8.2

> <JCHEM_PHYSIOLOGICAL_CHARGE>
0

> <ALOGPS_LOGP>
0.16

> <JCHEM_LOGP>
1.16

> <ALOGPS_LOGS>
-2.9

> <JCHEM_POLARIZABILITY>
30.94

> <JCHEM_POLAR_SURFACE_AREA>
106.33

> <JCHEM_REFRACTIVITY>
72.2

> <JCHEM_ROTATABLE_BOND_COUNT>
4

> <ALOGPS_SOLUBILITY>
4.63e-01 g/l __ 

$$$$
