
  Mrv0541 02231215592D          

 12 12  0  0  0  0            999 V2000
    2.1434    2.0625    0.0000 C   0  0  0  0  0  0  0  0  0  0  0  0
    2.1434    1.2375    0.0000 O   0  0  0  0  0  0  0  0  0  0  0  0
    1.4289    0.8250    0.0000 C   0  0  0  0  0  0  0  0  0  0  0  0
    1.4289    0.0000    0.0000 C   0  0  0  0  0  0  0  0  0  0  0  0
    0.7145   -0.4125    0.0000 C   0  0  0  0  0  0  0  0  0  0  0  0
    0.0000    0.0000    0.0000 C   0  0  0  0  0  0  0  0  0  0  0  0
    0.0000    0.8250    0.0000 C   0  0  0  0  0  0  0  0  0  0  0  0
    0.7145    1.2375    0.0000 C   0  0  0  0  0  0  0  0  0  0  0  0
    0.7145    2.0625    0.0000 O   0  0  0  0  0  0  0  0  0  0  0  0
    0.7145   -1.2375    0.0000 C   0  0  0  0  0  0  0  0  0  0  0  0
    1.4289   -1.6500    0.0000 O   0  5  0  0  0  0  0  0  0  0  0  0
    0.0000   -1.6500    0.0000 O   0  0  0  0  0  0  0  0  0  0  0  0
  1  2  1  0  0  0  0
  2  3  1  0  0  0  0
  3  4  2  0  0  0  0
  4  5  1  0  0  0  0
  5  6  2  0  0  0  0
  6  7  1  0  0  0  0
  7  8  2  0  0  0  0
  3  8  1  0  0  0  0
  8  9  1  0  0  0  0
  5 10  1  0  0  0  0
 10 11  1  0  0  0  0
 10 12  2  0  0  0  0
M  END
> <DRUGBANK_ID>
DB02130

> <DRUG_GROUPS>
experimental

> <GENERIC_NAME>
4-Hydroxy-3-Methoxybenzoate

> <CHEMICAL_FORMULA>
C8H7O4

> <MOLECULAR_WEIGHT>
167.1388

> <EXACT_MASS>
167.034433712

> <IUPAC_NAME>
4-hydroxy-3-methoxybenzoate

> <IUPAC_TRADITIONAL_NAME>
vanillate

> <INCHI_IDENTIFIER>
InChI=1S/C8H8O4/c1-12-7-4-5(8(10)11)2-3-6(7)9/h2-4,9H,1H3,(H,10,11)/p-1

> <INCHI_KEY>
InChIKey=WKOLLVMJNQIZCI-UHFFFAOYSA-M

> <SMILES>
COC1=CC(=CC=C1O)C([O-])=O

> <JCHEM_ACCEPTOR_COUNT>
4

> <JCHEM_DONOR_COUNT>
1

> <JCHEM_ACIDIC_PKA>
4.16

> <JCHEM_BASIC_PKA>
-4.9

> <JCHEM_PHYSIOLOGICAL_CHARGE>
-1

> <ALOGPS_LOGP>
1.04

> <JCHEM_LOGP>
1.17

> <ALOGPS_LOGS>
-1

> <JCHEM_POLARIZABILITY>
15.34

> <JCHEM_POLAR_SURFACE_AREA>
69.59

> <JCHEM_REFRACTIVITY>
52.6

> <JCHEM_ROTATABLE_BOND_COUNT>
2

> <ALOGPS_SOLUBILITY>
1.86e+01 g/l __ 

$$$$
