
  Mrv0541 02231216082D          

  7  6  0  0  1  0            999 V2000
    2.0625    0.7145    0.0000 N    0  0  0  0  0  0  0  0  0  0  0  0
    1.2375    0.7145    0.0000 C    0  0  1  0  0  0  0  0  0  0  0  0
    0.8250    1.4289    0.0000 C    0  0  0  0  0  0  0  0  0  0  0  0
    1.2375    2.1434    0.0000 Se   0  0  0  0  0  0  0  0  0  0  0  0
    0.8250    0.0000    0.0000 C    0  0  0  0  0  0  0  0  0  0  0  0
    1.2375   -0.7145    0.0000 O    0  0  0  0  0  0  0  0  0  0  0  0
    0.0000    0.0000    0.0000 O    0  0  0  0  0  0  0  0  0  0  0  0
  2  1  1  6  0  0  0
  2  3  1  0  0  0  0
  3  4  1  0  0  0  0
  2  5  1  0  0  0  0
  5  6  1  0  0  0  0
  5  7  2  0  0  0  0
M  END
> <DRUGBANK_ID>
DB02345

> <DRUG_GROUPS>
experimental

> <GENERIC_NAME>
Selenocysteine

> <CHEMICAL_FORMULA>
C3H7NO2Se

> <MOLECULAR_WEIGHT>
168.05

> <EXACT_MASS>
168.964200301

> <IUPAC_NAME>
(2R)-2-amino-3-selanylpropanoic acid

> <IUPAC_TRADITIONAL_NAME>
selenocysteine

> <INCHI_IDENTIFIER>
InChI=1S/C3H7NO2Se/c4-2(1-7)3(5)6/h2,7H,1,4H2,(H,5,6)/t2-/m0/s1

> <INCHI_KEY>
InChIKey=ZKZBPNGNEQAJSX-REOHCLBHSA-N

> <SMILES>
N[C@@H](C[SeH])C(O)=O

> <JCHEM_ACCEPTOR_COUNT>
3

> <JCHEM_DONOR_COUNT>
2

> <JCHEM_ACIDIC_PKA>
1.27

> <JCHEM_BASIC_PKA>
8.42

> <JCHEM_PHYSIOLOGICAL_CHARGE>
0

> <ALOGPS_LOGP>
-3.2

> <JCHEM_LOGP>
-4.1

> <ALOGPS_LOGS>
0.29

> <JCHEM_POLARIZABILITY>
10.67

> <JCHEM_POLAR_SURFACE_AREA>
63.32

> <JCHEM_REFRACTIVITY>
33.45

> <JCHEM_ROTATABLE_BOND_COUNT>
2

> <ALOGPS_SOLUBILITY>
3.25e+02 g/l __ 

$$$$
