
  Mrv0541 02231216292D          

  8  7  0  0  0  0            999 V2000
    0.1105   -2.0625    0.0000 O   0  0  0  0  0  0  0  0  0  0  0  0
    0.1105   -1.2375    0.0000 C   0  0  0  0  0  0  0  0  0  0  0  0
   -0.6039   -0.8250    0.0000 O   0  0  0  0  0  0  0  0  0  0  0  0
    0.8250   -0.8250    0.0000 C   0  0  0  0  0  0  0  0  0  0  0  0
    0.8250    0.0000    0.0000 P   0  0  0  0  0  0  0  0  0  0  0  0
    0.8250    0.8250    0.0000 O   0  0  0  0  0  0  0  0  0  0  0  0
    1.6500    0.0000    0.0000 O   0  0  0  0  0  0  0  0  0  0  0  0
    0.0000    0.0000    0.0000 O   0  0  0  0  0  0  0  0  0  0  0  0
  1  2  1  0  0  0  0
  2  3  2  0  0  0  0
  2  4  1  0  0  0  0
  4  5  1  0  0  0  0
  5  6  1  0  0  0  0
  5  7  1  0  0  0  0
  5  8  2  0  0  0  0
M  END
> <DRUGBANK_ID>
DB02823

> <DRUG_GROUPS>
experimental

> <GENERIC_NAME>
Phosphonoacetic Acid

> <CHEMICAL_FORMULA>
C2H5O5P

> <MOLECULAR_WEIGHT>
140.0319

> <EXACT_MASS>
139.987459782

> <IUPAC_NAME>
2-phosphonoacetic acid

> <IUPAC_TRADITIONAL_NAME>
phosphonoacetic acid

> <INCHI_IDENTIFIER>
InChI=1S/C2H5O5P/c3-2(4)1-8(5,6)7/h1H2,(H,3,4)(H2,5,6,7)

> <INCHI_KEY>
InChIKey=XUYJLQHKOGNDPB-UHFFFAOYSA-N

> <SMILES>
OC(=O)CP(O)(O)=O

> <JCHEM_ACCEPTOR_COUNT>
5

> <JCHEM_DONOR_COUNT>
3

> <JCHEM_ACIDIC_PKA>
1.64

> <JCHEM_PHYSIOLOGICAL_CHARGE>
-2

> <ALOGPS_LOGP>
-2.6

> <JCHEM_LOGP>
-1.6

> <ALOGPS_LOGS>
-0.75

> <JCHEM_POLARIZABILITY>
9.63

> <JCHEM_POLAR_SURFACE_AREA>
94.83

> <JCHEM_REFRACTIVITY>
23.63

> <JCHEM_ROTATABLE_BOND_COUNT>
2

> <ALOGPS_SOLUBILITY>
2.51e+01 g/l __ 

$$$$
