
  Mrv0541 02231216292D          

 31 34  0  0  1  0            999 V2000
   -2.7900    3.9253    0.0000 N   0  0  0  0  0  0  0  0  0  0  0  0
   -3.5970    3.7538    0.0000 C   0  0  0  0  0  0  0  0  0  0  0  0
   -3.8519    2.9692    0.0000 N   0  0  0  0  0  0  0  0  0  0  0  0
   -4.6589    2.7976    0.0000 C   0  0  0  0  0  0  0  0  0  0  0  0
   -5.2109    3.4107    0.0000 C   0  0  0  0  0  0  0  0  0  0  0  0
   -5.9646    3.0752    0.0000 N   0  0  0  0  0  0  0  0  0  0  0  0
   -5.8783    2.2547    0.0000 C   0  0  0  0  0  0  0  0  0  0  0  0
   -5.0714    2.0832    0.0000 N   0  0  0  0  0  0  0  0  0  0  0  0
   -4.7358    1.3295    0.0000 C   0  0  1  0  0  0  0  0  0  0  0  0
   -3.9288    1.1580    0.0000 O   0  0  0  0  0  0  0  0  0  0  0  0
   -3.8426    0.3375    0.0000 C   0  0  2  0  0  0  0  0  0  0  0  0
   -3.1281   -0.0750    0.0000 C   0  0  0  0  0  0  0  0  0  0  0  0
   -2.4137    0.3375    0.0000 O   0  0  0  0  0  0  0  0  0  0  0  0
   -1.6992   -0.0750    0.0000 P   0  0  2  0  0  0  0  0  0  0  0  0
   -2.1117   -0.7895    0.0000 O   0  0  0  0  0  0  0  0  0  0  0  0
   -1.2867    0.6394    0.0000 O   0  0  0  0  0  0  0  0  0  0  0  0
   -0.9847   -0.4875    0.0000 O   0  0  0  0  0  0  0  0  0  0  0  0
   -0.2703   -0.0750    0.0000 P   0  0  0  0  0  0  0  0  0  0  0  0
    0.4442    0.3375    0.0000 O   0  0  0  0  0  0  0  0  0  0  0  0
    0.1422   -0.7895    0.0000 O   0  0  0  0  0  0  0  0  0  0  0  0
   -0.6828    0.6394    0.0000 O   0  0  0  0  0  0  0  0  0  0  0  0
   -4.5963    0.0019    0.0000 C   0  0  2  0  0  0  0  0  0  0  0  0
   -5.0088   -0.7126    0.0000 O   0  0  0  0  0  0  0  0  0  0  0  0
   -5.8158   -0.5410    0.0000 P   0  0  2  0  0  0  0  0  0  0  0  0
   -5.9020   -1.3615    0.0000 O   0  0  0  0  0  0  0  0  0  0  0  0
   -6.6408   -0.5410    0.0000 O   0  0  0  0  0  0  0  0  0  0  0  0
   -5.9020    0.2795    0.0000 O   0  0  0  0  0  0  0  0  0  0  0  0
   -5.1483    0.6150    0.0000 C   0  0  2  0  0  0  0  0  0  0  0  0
   -4.9560    4.1953    0.0000 C   0  0  0  0  0  0  0  0  0  0  0  0
   -5.5080    4.8084    0.0000 O   0  0  0  0  0  0  0  0  0  0  0  0
   -4.1490    4.3669    0.0000 N   0  0  0  0  0  0  0  0  0  0  0  0
  1  2  1  0  0  0  0
  2  3  2  0  0  0  0
  3  4  1  0  0  0  0
  4  5  2  0  0  0  0
  5  6  1  0  0  0  0
  6  7  2  0  0  0  0
  7  8  1  0  0  0  0
  4  8  1  0  0  0  0
  9  8  1  1  0  0  0
  9 10  1  0  0  0  0
 10 11  1  0  0  0  0
 11 12  1  6  0  0  0
 12 13  1  0  0  0  0
 14 13  1  6  0  0  0
 14 15  1  1  0  0  0
 14 16  2  0  0  0  0
 14 17  1  0  0  0  0
 17 18  1  0  0  0  0
 18 19  1  0  0  0  0
 18 20  1  0  0  0  0
 18 21  2  0  0  0  0
 11 22  1  0  0  0  0
 22 23  1  6  0  0  0
 23 24  1  0  0  0  0
 24 25  1  1  0  0  0
 24 26  2  0  0  0  0
 24 27  1  0  0  0  0
 28 27  1  6  0  0  0
  9 28  1  0  0  0  0
 22 28  1  0  0  0  0
  5 29  1  0  0  0  0
 29 30  2  0  0  0  0
 29 31  1  0  0  0  0
  2 31  1  0  0  0  0
M  END
> <DRUGBANK_ID>
DB02836

> <DRUG_GROUPS>
experimental

> <GENERIC_NAME>
Guanosine 5'-Diphosphate 2':3'-Cyclic Monophosphate

> <CHEMICAL_FORMULA>
C10H14N5O13P3

> <MOLECULAR_WEIGHT>
505.1651

> <EXACT_MASS>
504.980095095

> <IUPAC_NAME>
[({[(3aS,4R,6S,6aS)-6-(2-amino-6-oxo-6,9-dihydro-1H-purin-9-yl)-2-hydroxy-2-oxo-tetrahydro-2H-1,3,5,2$l^{5}-furo[3,4-d][1,3,2$l^{5}]dioxaphosphol-4-yl]methoxy}(hydroxy)phosphoryl)oxy]phosphonic acid

> <IUPAC_TRADITIONAL_NAME>
{[(3aS,4R,6S,6aS)-6-(2-amino-6-oxo-1H-purin-9-yl)-2-hydroxy-2-oxo-tetrahydro-1,3,5,2$l^{5}-furo[3,4-d][1,3,2$l^{5}]dioxaphosphol-4-yl]methoxy(hydroxy)phosphoryl}oxyphosphonic acid

> <INCHI_IDENTIFIER>
InChI=1S/C10H14N5O13P3/c11-10-13-7-4(8(16)14-10)12-2-15(7)9-6-5(26-31(22,23)27-6)3(25-9)1-24-30(20,21)28-29(17,18)19/h2-3,5-6,9H,1H2,(H,20,21)(H,22,23)(H2,17,18,19)(H3,11,13,14,16)/t3-,5+,6+,9+/m1/s1

> <INCHI_KEY>
InChIKey=NGYWTCOGOZELRS-KHLHZJAASA-N

> <SMILES>
NC1=NC2=C(N=CN2[C@H]2O[C@H](CO[P@](O)(=O)OP(O)(O)=O)[C@@H]3O[P@](O)(=O)O[C@H]23)C(=O)N1

> <JCHEM_ACCEPTOR_COUNT>
12

> <JCHEM_DONOR_COUNT>
6

> <JCHEM_ACIDIC_PKA>
1.68

> <JCHEM_BASIC_PKA>
1.18

> <JCHEM_PHYSIOLOGICAL_CHARGE>
-3

> <ALOGPS_LOGP>
-0.68

> <JCHEM_LOGP>
-2.7

> <ALOGPS_LOGS>
-1.9

> <JCHEM_POLARIZABILITY>
38.13

> <JCHEM_POLAR_SURFACE_AREA>
263.58

> <JCHEM_REFRACTIVITY>
93.46

> <JCHEM_ROTATABLE_BOND_COUNT>
6

> <ALOGPS_SOLUBILITY>
6.76e+00 g/l __ 

$$$$
