
  Mrv0541 02231216352D          

  9  9  0  0  0  0            999 V2000
   -0.8843    0.8843    0.0000 C   0  0  0  0  0  0  0  0  0  0  0  0
   -0.0997    0.6294    0.0000 C   0  0  0  0  0  0  0  0  0  0  0  0
    0.5678    1.1143    0.0000 C   0  0  0  0  0  0  0  0  0  0  0  0
    0.5678    1.9393    0.0000 C   0  0  0  0  0  0  0  0  0  0  0  0
    1.2822    2.3518    0.0000 C   0  0  0  0  0  0  0  0  0  0  0  0
    1.2822    3.1768    0.0000 O   0  0  0  0  0  0  0  0  0  0  0  0
    1.2352    0.6294    0.0000 S   0  0  0  0  0  0  0  0  0  0  0  0
    0.9803   -0.1553    0.0000 C   0  0  0  0  0  0  0  0  0  0  0  0
    0.1553   -0.1553    0.0000 N   0  0  0  0  0  0  0  0  0  0  0  0
  1  2  1  0  0  0  0
  2  3  2  0  0  0  0
  3  4  1  0  0  0  0
  4  5  1  0  0  0  0
  5  6  1  0  0  0  0
  3  7  1  0  0  0  0
  7  8  1  0  0  0  0
  8  9  2  0  0  0  0
  2  9  1  0  0  0  0
M  END
> <DRUGBANK_ID>
DB02969

> <DRUG_GROUPS>
experimental

> <GENERIC_NAME>
4-Methyl-5-Hydroxyethylthiazole

> <CHEMICAL_FORMULA>
C6H9NOS

> <MOLECULAR_WEIGHT>
143.207

> <EXACT_MASS>
143.040484605

> <IUPAC_NAME>
2-(4-methyl-1,3-thiazol-5-yl)ethan-1-ol

> <IUPAC_TRADITIONAL_NAME>
2-(4-methyl-1,3-thiazol-5-yl)ethanol

> <INCHI_IDENTIFIER>
InChI=1S/C6H9NOS/c1-5-6(2-3-8)9-4-7-5/h4,8H,2-3H2,1H3

> <INCHI_KEY>
InChIKey=BKAWJIRCKVUVED-UHFFFAOYSA-N

> <SMILES>
CC1=C(CCO)SC=N1

> <JCHEM_ACCEPTOR_COUNT>
2

> <JCHEM_DONOR_COUNT>
1

> <JCHEM_ACIDIC_PKA>
15.62

> <JCHEM_BASIC_PKA>
3.12

> <JCHEM_PHYSIOLOGICAL_CHARGE>
0

> <ALOGPS_LOGP>
0.67

> <JCHEM_LOGP>
0.42

> <ALOGPS_LOGS>
-1.8

> <JCHEM_POLARIZABILITY>
14.92

> <JCHEM_POLAR_SURFACE_AREA>
33.12

> <JCHEM_REFRACTIVITY>
37.32

> <JCHEM_ROTATABLE_BOND_COUNT>
2

> <ALOGPS_SOLUBILITY>
2.26e+00 g/l __ 

$$$$
