K21
  Mrv0541 02231216342D          

 30 33  0  0  0  0            999 V2000
   -4.6304    0.7948    0.0000 C   0  0  0  0  0  0  0  0  0  0  0  0
   -3.9160    0.3823    0.0000 C   0  0  0  0  0  0  0  0  0  0  0  0
   -3.2015    0.7948    0.0000 C   0  0  0  0  0  0  0  0  0  0  0  0
   -3.2015    1.6198    0.0000 C   0  0  0  0  0  0  0  0  0  0  0  0
   -3.9160    2.0323    0.0000 C   0  0  0  0  0  0  0  0  0  0  0  0
   -4.6304    1.6198    0.0000 C   0  0  0  0  0  0  0  0  0  0  0  0
   -2.5565    0.2804    0.0000 C   0  0  0  0  0  0  0  0  0  0  0  0
   -1.7522    0.4640    0.0000 N   0  0  0  0  0  0  0  0  0  0  0  0
   -1.3942    1.2073    0.0000 C   0  0  0  0  0  0  0  0  0  0  0  0
   -1.7522    1.9506    0.0000 C   0  0  0  0  0  0  0  0  0  0  0  0
   -2.5565    2.1341    0.0000 S   0  0  0  0  0  0  0  0  0  0  0  0
   -1.2378   -0.1811    0.0000 C   0  0  0  0  0  0  0  0  0  0  0  0
   -0.4220   -0.0581    0.0000 C   0  0  0  0  0  0  0  0  0  0  0  0
   -1.5392   -0.9490    0.0000 O   0  0  0  0  0  0  0  0  0  0  0  0
    0.0924   -0.7031    0.0000 C   0  0  0  0  0  0  0  0  0  0  0  0
    0.9082   -0.5801    0.0000 N   0  0  0  0  0  0  0  0  0  0  0  0
    1.2096    0.1878    0.0000 C   0  0  0  0  0  0  0  0  0  0  0  0
    2.0254    0.3108    0.0000 C   0  0  0  0  0  0  0  0  0  0  0  0
    2.5397   -0.3342    0.0000 C   0  0  0  0  0  0  0  0  0  0  0  0
    2.2383   -1.1022    0.0000 C   0  0  0  0  0  0  0  0  0  0  0  0
    1.4225   -1.2252    0.0000 C   0  0  0  0  0  0  0  0  0  0  0  0
    3.3555   -0.2113    0.0000 C   0  0  0  0  0  0  0  0  0  0  0  0
    4.6857   -0.7333    0.0000 C   0  0  0  0  0  0  0  0  0  0  0  0
    5.2001   -1.3783    0.0000 C   0  0  0  0  0  0  0  0  0  0  0  0
    4.8987   -2.1463    0.0000 C   0  0  0  0  0  0  0  0  0  0  0  0
    4.0829   -2.2693    0.0000 C   0  0  0  0  0  0  0  0  0  0  0  0
    3.5685   -1.6242    0.0000 C   0  0  0  0  0  0  0  0  0  0  0  0
    3.8699   -0.8563    0.0000 C   0  0  0  0  0  0  0  0  0  0  0  0
   -5.3449    0.3823    0.0000 O   0  0  0  0  0  0  0  0  0  0  0  0
   -5.3449   -0.4427    0.0000 C   0  0  0  0  0  0  0  0  0  0  0  0
  1  2  2  0  0  0  0
  1  6  1  0  0  0  0
  1 29  1  0  0  0  0
  2  3  1  0  0  0  0
  3  4  2  0  0  0  0
  3  7  1  0  0  0  0
  4  5  1  0  0  0  0
  4 11  1  0  0  0  0
  5  6  2  0  0  0  0
  7  8  1  0  0  0  0
  8  9  1  0  0  0  0
  8 12  1  0  0  0  0
  9 10  1  0  0  0  0
 10 11  1  0  0  0  0
 12 13  1  0  0  0  0
 12 14  2  0  0  0  0
 13 15  1  0  0  0  0
 15 16  1  0  0  0  0
 16 17  1  0  0  0  0
 16 21  1  0  0  0  0
 17 18  1  0  0  0  0
 18 19  1  0  0  0  0
 19 20  1  0  0  0  0
 19 22  1  0  0  0  0
 20 21  1  0  0  0  0
 22 28  1  0  0  0  0
 23 24  2  0  0  0  0
 23 28  1  0  0  0  0
 24 25  1  0  0  0  0
 25 26  2  0  0  0  0
 26 27  1  0  0  0  0
 27 28  2  0  0  0  0
 29 30  1  0  0  0  0
M  END
> <DRUGBANK_ID>
DB02929

> <DRUG_GROUPS>
experimental

> <GENERIC_NAME>
K201

> <CHEMICAL_FORMULA>
C25H32N2O2S

> <MOLECULAR_WEIGHT>
424.599

> <EXACT_MASS>
424.218448968

> <IUPAC_NAME>
3-(4-benzylpiperidin-1-yl)-1-(7-methoxy-2,3,4,5-tetrahydro-1,4-benzothiazepin-4-yl)propan-1-one

> <IUPAC_TRADITIONAL_NAME>
3-(4-benzylpiperidin-1-yl)-1-(7-methoxy-3,5-dihydro-2H-1,4-benzothiazepin-4-yl)propan-1-one

> <INCHI_IDENTIFIER>
InChI=1S/C25H32N2O2S/c1-29-23-7-8-24-22(18-23)19-27(15-16-30-24)25(28)11-14-26-12-9-21(10-13-26)17-20-5-3-2-4-6-20/h2-8,18,21H,9-17,19H2,1H3

> <INCHI_KEY>
InChIKey=KCWGETCFOVJEPI-UHFFFAOYSA-N

> <SMILES>
COC1=CC2=C(SCCN(C2)C(=O)CCN2CCC(CC3=CC=CC=C3)CC2)C=C1

> <JCHEM_ACCEPTOR_COUNT>
3

> <JCHEM_DONOR_COUNT>
0

> <JCHEM_BASIC_PKA>
9.44

> <JCHEM_PHYSIOLOGICAL_CHARGE>
1

> <ALOGPS_LOGP>
4.05

> <JCHEM_LOGP>
4.03

> <ALOGPS_LOGS>
-6.1

> <JCHEM_POLARIZABILITY>
49.34

> <JCHEM_POLAR_SURFACE_AREA>
32.78

> <JCHEM_REFRACTIVITY>
125.84

> <JCHEM_ROTATABLE_BOND_COUNT>
6

> <ALOGPS_SOLUBILITY>
3.70e-04 g/l __ 

$$$$
