
  Mrv0541 02231216342D          

 63 67  0  0  1  0            999 V2000
   22.1847   -6.9073    0.0000 C   0  0  0  0  0  0  0  0  0  0  0  0
   22.5592   -6.1722    0.0000 C   0  0  0  0  0  0  0  0  0  0  0  0
   22.9336   -5.4371    0.0000 C   0  0  0  0  0  0  0  0  0  0  0  0
   21.8241   -5.7977    0.0000 C   0  0  0  0  0  0  0  0  0  0  0  0
   21.1322   -6.2471    0.0000 O   0  0  0  0  0  0  0  0  0  0  0  0
   20.3971   -5.8726    0.0000 P   0  0  2  0  0  0  0  0  0  0  0  0
   20.0226   -6.6077    0.0000 O   0  0  0  0  0  0  0  0  0  0  0  0
   20.7716   -5.1375    0.0000 O   0  0  0  0  0  0  0  0  0  0  0  0
   19.6620   -5.4981    0.0000 O   0  0  0  0  0  0  0  0  0  0  0  0
   18.9701   -5.9475    0.0000 P   0  0  1  0  0  0  0  0  0  0  0  0
   19.4195   -6.6393    0.0000 O   0  0  0  0  0  0  0  0  0  0  0  0
   18.5207   -5.2556    0.0000 O   0  0  0  0  0  0  0  0  0  0  0  0
   18.2782   -6.3969    0.0000 O   0  0  0  0  0  0  0  0  0  0  0  0
   17.5431   -6.0224    0.0000 C   0  0  0  0  0  0  0  0  0  0  0  0
   16.8513   -6.4717    0.0000 C   0  0  2  0  0  0  0  0  0  0  0  0
   16.8081   -7.2956    0.0000 O   0  0  0  0  0  0  0  0  0  0  0  0
   16.0113   -7.5092    0.0000 C   0  0  2  0  0  0  0  0  0  0  0  0
   15.5619   -6.8173    0.0000 C   0  0  2  0  0  0  0  0  0  0  0  0
   14.7380   -6.7742    0.0000 O   0  0  0  0  0  0  0  0  0  0  0  0
   16.0810   -6.1762    0.0000 C   0  0  1  0  0  0  0  0  0  0  0  0
   15.8674   -5.3793    0.0000 O   0  0  0  0  0  0  0  0  0  0  0  0
   16.4508   -4.7959    0.0000 P   0  0  0  0  0  0  0  0  0  0  0  0
   17.0342   -5.3792    0.0000 O   0  0  0  0  0  0  0  0  0  0  0  0
   15.8673   -4.2126    0.0000 O   0  0  0  0  0  0  0  0  0  0  0  0
   17.0341   -4.2125    0.0000 O   0  0  0  0  0  0  0  0  0  0  0  0
   15.7157   -8.2794    0.0000 N   0  0  0  0  0  0  0  0  0  0  0  0
   14.9188   -8.4930    0.0000 C   0  0  0  0  0  0  0  0  0  0  0  0
   14.8757   -9.3169    0.0000 N   0  0  0  0  0  0  0  0  0  0  0  0
   15.6459   -9.6125    0.0000 C   0  0  0  0  0  0  0  0  0  0  0  0
   16.1651   -8.9713    0.0000 C   0  0  0  0  0  0  0  0  0  0  0  0
   16.9799   -9.1003    0.0000 N   0  0  0  0  0  0  0  0  0  0  0  0
   17.2756   -9.8705    0.0000 C   0  0  0  0  0  0  0  0  0  0  0  0
   16.7565  -10.5117    0.0000 N   0  0  0  0  0  0  0  0  0  0  0  0
   15.9416  -10.3827    0.0000 C   0  0  0  0  0  0  0  0  0  0  0  0
   15.4225  -11.0239    0.0000 N   0  0  0  0  0  0  0  0  0  0  0  0
   23.2943   -6.5466    0.0000 C   0  0  1  0  0  0  0  0  0  0  0  0
   23.3375   -7.3705    0.0000 O   0  0  0  0  0  0  0  0  0  0  0  0
   23.9861   -6.0973    0.0000 C   0  0  0  0  0  0  0  0  0  0  0  0
   23.9429   -5.2734    0.0000 O   0  0  0  0  0  0  0  0  0  0  0  0
   24.7212   -6.4717    0.0000 N   0  0  0  0  0  0  0  0  0  0  0  0
   25.4131   -6.0224    0.0000 C   0  0  0  0  0  0  0  0  0  0  0  0
   26.1482   -6.3969    0.0000 C   0  0  0  0  0  0  0  0  0  0  0  0
   26.8401   -5.9475    0.0000 C   0  0  0  0  0  0  0  0  0  0  0  0
   26.7969   -5.1236    0.0000 O   0  0  0  0  0  0  0  0  0  0  0  0
   27.5752   -6.3220    0.0000 N   0  0  0  0  0  0  0  0  0  0  0  0
   28.2671   -5.8726    0.0000 C   0  0  0  0  0  0  0  0  0  0  0  0
   29.0022   -6.2471    0.0000 C   0  0  0  0  0  0  0  0  0  0  0  0
   29.6941   -5.7977    0.0000 S   0  0  0  0  0  0  0  0  0  0  0  0
   30.4292   -6.1722    0.0000 C   0  0  0  0  0  0  0  0  0  0  0  0
   31.1210   -5.7228    0.0000 C   0  0  0  0  0  0  0  0  0  0  0  0
   31.0778   -4.8989    0.0000 O   0  0  0  0  0  0  0  0  0  0  0  0
   31.8561   -6.0973    0.0000 N   0  0  0  0  0  0  0  0  0  0  0  0
   32.5480   -5.6479    0.0000 C   0  0  0  0  0  0  0  0  0  0  0  0
   33.2831   -6.0224    0.0000 C   0  0  0  0  0  0  0  0  0  0  0  0
   33.9750   -5.5730    0.0000 C   0  0  0  0  0  0  0  0  0  0  0  0
   34.0181   -4.7491    0.0000 C   0  0  0  0  0  0  0  0  0  0  0  0
   34.8150   -4.5355    0.0000 N   0  0  0  0  0  0  0  0  0  0  0  0
   35.2643   -5.2274    0.0000 C   0  0  0  0  0  0  0  0  0  0  0  0
   36.0792   -5.3564    0.0000 C   0  0  0  0  0  0  0  0  0  0  0  0
   36.3749   -6.1266    0.0000 C   0  0  0  0  0  0  0  0  0  0  0  0
   35.8558   -6.7678    0.0000 C   0  0  0  0  0  0  0  0  0  0  0  0
   35.0409   -6.6388    0.0000 C   0  0  0  0  0  0  0  0  0  0  0  0
   34.7452   -5.8686    0.0000 C   0  0  0  0  0  0  0  0  0  0  0  0
  1  2  1  0  0  0  0
  2  3  1  0  0  0  0
  2  4  1  0  0  0  0
  4  5  1  0  0  0  0
  6  5  1  1  0  0  0
  6  7  1  6  0  0  0
  6  8  2  0  0  0  0
  6  9  1  0  0  0  0
 10  9  1  6  0  0  0
 10 11  1  1  0  0  0
 10 12  2  0  0  0  0
 10 13  1  0  0  0  0
 13 14  1  0  0  0  0
 15 14  1  6  0  0  0
 15 16  1  0  0  0  0
 16 17  1  0  0  0  0
 17 18  1  0  0  0  0
 18 19  1  6  0  0  0
 18 20  1  0  0  0  0
 15 20  1  0  0  0  0
 20 21  1  1  0  0  0
 21 22  1  0  0  0  0
 22 23  1  0  0  0  0
 22 24  1  0  0  0  0
 22 25  2  0  0  0  0
 17 26  1  1  0  0  0
 26 27  1  0  0  0  0
 27 28  2  0  0  0  0
 28 29  1  0  0  0  0
 29 30  2  0  0  0  0
 26 30  1  0  0  0  0
 30 31  1  0  0  0  0
 31 32  2  0  0  0  0
 32 33  1  0  0  0  0
 33 34  2  0  0  0  0
 29 34  1  0  0  0  0
 34 35  1  0  0  0  0
  2 36  1  0  0  0  0
 36 37  1  6  0  0  0
 36 38  1  0  0  0  0
 38 39  2  0  0  0  0
 38 40  1  0  0  0  0
 40 41  1  0  0  0  0
 41 42  1  0  0  0  0
 42 43  1  0  0  0  0
 43 44  2  0  0  0  0
 43 45  1  0  0  0  0
 45 46  1  0  0  0  0
 46 47  1  0  0  0  0
 47 48  1  0  0  0  0
 48 49  1  0  0  0  0
 49 50  1  0  0  0  0
 50 51  2  0  0  0  0
 50 52  1  0  0  0  0
 52 53  1  0  0  0  0
 53 54  1  0  0  0  0
 54 55  1  0  0  0  0
 55 56  4  0  0  0  0
 56 57  4  0  0  0  0
 57 58  4  0  0  0  0
 58 59  4  0  0  0  0
 59 60  4  0  0  0  0
 60 61  4  0  0  0  0
 61 62  4  0  0  0  0
 62 63  4  0  0  0  0
 55 63  4  0  0  0  0
 58 63  4  0  0  0  0
M  END
> <DRUGBANK_ID>
DB02931

> <DRUG_GROUPS>
experimental

> <GENERIC_NAME>
Coa-S-Acetyl Tryptamine

> <CHEMICAL_FORMULA>
C33H47N9O17P3S

> <MOLECULAR_WEIGHT>
966.763

> <EXACT_MASS>
966.202346349

> <IUPAC_NAME>
{[(2S,3R,4R,5R)-5-(6-amino-9H-purin-9-yl)-4-hydroxy-2-({[hydroxy({hydroxy[(3R)-3-hydroxy-3-{[2-({2-[({[2-(indol-3-yl)ethyl]carbamoyl}methyl)sulfanyl]ethyl}carbamoyl)ethyl]carbamoyl}-2,2-dimethylpropoxy]phosphoryl}oxy)phosphoryl]oxy}methyl)oxolan-3-yl]oxy}phosphonic acid

> <IUPAC_TRADITIONAL_NAME>
[(2S,3R,4R,5R)-5-(6-aminopurin-9-yl)-4-hydroxy-2-[({hydroxy[hydroxy(3R)-3-hydroxy-3-{[2-({2-[({[2-(indol-3-yl)ethyl]carbamoyl}methyl)sulfanyl]ethyl}carbamoyl)ethyl]carbamoyl}-2,2-dimethylpropoxyphosphoryl]oxyphosphoryl}oxy)methyl]oxolan-3-yl]oxyphosphonic acid

> <INCHI_IDENTIFIER>
InChI=1S/C33H47N9O17P3S/c1-33(2,28(46)31(47)37-10-8-23(43)36-11-12-63-15-24(44)35-9-7-19-13-38-21-6-4-3-5-20(19)21)16-56-62(53,54)59-61(51,52)55-14-22-27(58-60(48,49)50)26(45)32(57-22)42-18-41-25-29(34)39-17-40-30(25)42/h3-6,13,17-18,22,26-28,32,45-46H,7-12,14-16H2,1-2H3,(H,35,44)(H,36,43)(H,37,47)(H,51,52)(H,53,54)(H2,34,39,40)(H2,48,49,50)/t22-,26+,27-,28-,32+/m0/s1

> <INCHI_KEY>
InChIKey=WEDBOMCWRKFRNZ-KOGRCXSVSA-N

> <SMILES>
CC(C)(CO[P@](O)(=O)O[P@@](O)(=O)OC[C@@H]1O[C@H]([C@H](O)[C@H]1OP(O)(O)=O)N1C=NC2=C1N=CN=C2N)[C@@H](O)C(=O)NCCC(=O)NCCSCC(=O)NCCc1cnc2ccccc12

> <JCHEM_ACCEPTOR_COUNT>
18

> <JCHEM_DONOR_COUNT>
10

> <JCHEM_ACIDIC_PKA>
0.83

> <JCHEM_BASIC_PKA>
5.31

> <JCHEM_PHYSIOLOGICAL_CHARGE>
-4

> <ALOGPS_LOGP>
0.02

> <JCHEM_LOGP>
-7.7

> <ALOGPS_LOGS>
-2.6

> <JCHEM_POLARIZABILITY>
89.54

> <JCHEM_POLAR_SURFACE_AREA>
388.55

> <JCHEM_REFRACTIVITY>
219.29

> <JCHEM_ROTATABLE_BOND_COUNT>
24

> <ALOGPS_SOLUBILITY>
2.66e+00 g/l __ 

$$$$
