
  Mrv0541 02231216092D          

 28 29  0  0  1  0            999 V2000
    0.0000   -2.4750    0.0000 C   0  0  0  0  0  0  0  0  0  0  0  0
    0.7145   -2.8875    0.0000 C   0  0  0  0  0  0  0  0  0  0  0  0
    1.4289   -2.4750    0.0000 C   0  0  0  0  0  0  0  0  0  0  0  0
    2.1434   -2.8875    0.0000 C   0  0  0  0  0  0  0  0  0  0  0  0
    2.8579   -2.4750    0.0000 O   0  0  0  0  0  0  0  0  0  0  0  0
    3.5724   -2.8875    0.0000 C   0  0  0  0  0  0  0  0  0  0  0  0
    4.2868   -2.4750    0.0000 C   0  0  0  0  0  0  0  0  0  0  0  0
    5.0013   -2.8875    0.0000 C   0  0  0  0  0  0  0  0  0  0  0  0
    5.0013   -3.7125    0.0000 C   0  0  0  0  0  0  0  0  0  0  0  0
    4.2868   -4.1250    0.0000 C   0  0  0  0  0  0  0  0  0  0  0  0
    3.5724   -3.7125    0.0000 C   0  0  0  0  0  0  0  0  0  0  0  0
    5.7158   -4.1250    0.0000 S   0  0  0  0  0  0  0  0  0  0  0  0
    5.3033   -4.8395    0.0000 O   0  0  0  0  0  0  0  0  0  0  0  0
    6.1283   -3.4105    0.0000 O   0  0  0  0  0  0  0  0  0  0  0  0
    6.4302   -4.5375    0.0000 N   0  0  0  0  0  0  0  0  0  0  0  0
    7.1839   -4.2019    0.0000 C   0  0  0  0  0  0  0  0  0  0  0  0
    7.7359   -4.8150    0.0000 C   0  0  2  0  0  0  0  0  0  0  0  0
    7.3234   -5.5295    0.0000 C   0  0  0  0  0  0  0  0  0  0  0  0
    6.5165   -5.3580    0.0000 C   0  0  2  0  0  0  0  0  0  0  0  0
    5.9034   -5.9100    0.0000 C   0  0  0  0  0  0  0  0  0  0  0  0
    5.1188   -5.6551    0.0000 O   0  0  0  0  0  0  0  0  0  0  0  0
    6.0749   -6.7170    0.0000 N   0  0  0  0  0  0  0  0  0  0  0  0
    5.4618   -7.2690    0.0000 O   0  0  0  0  0  0  0  0  0  0  0  0
    8.5564   -4.7288    0.0000 N   0  0  0  0  0  0  0  0  0  0  0  0
    8.8920   -3.9751    0.0000 S   0  0  0  0  0  0  0  0  0  0  0  0
    9.2275   -3.2215    0.0000 C   0  0  0  0  0  0  0  0  0  0  0  0
    9.6457   -4.3107    0.0000 O   0  0  0  0  0  0  0  0  0  0  0  0
    8.1383   -3.6396    0.0000 O   0  0  0  0  0  0  0  0  0  0  0  0
  1  2  1  0  0  0  0
  2  3  1  0  0  0  0
  3  4  1  0  0  0  0
  4  5  1  0  0  0  0
  5  6  1  0  0  0  0
  6  7  2  0  0  0  0
  7  8  1  0  0  0  0
  8  9  2  0  0  0  0
  9 10  1  0  0  0  0
 10 11  2  0  0  0  0
  6 11  1  0  0  0  0
  9 12  1  0  0  0  0
 12 13  2  0  0  0  0
 12 14  2  0  0  0  0
 12 15  1  0  0  0  0
 15 16  1  0  0  0  0
 16 17  1  0  0  0  0
 17 18  1  0  0  0  0
 18 19  1  0  0  0  0
 15 19  1  0  0  0  0
 19 20  1  6  0  0  0
 20 21  2  0  0  0  0
 20 22  1  0  0  0  0
 22 23  1  0  0  0  0
 17 24  1  1  0  0  0
 24 25  1  0  0  0  0
 25 26  1  0  0  0  0
 25 27  2  0  0  0  0
 25 28  2  0  0  0  0
M  END
> <DRUGBANK_ID>
DB02367

> <DRUG_GROUPS>
experimental

> <GENERIC_NAME>
(1n)-4-N-Butoxyphenylsulfonyl-(2r)-N-Hydroxycarboxamido-(4s)-Methanesulfonylamino-Pyrrolidine

> <CHEMICAL_FORMULA>
C16H25N3O7S2

> <MOLECULAR_WEIGHT>
435.516

> <EXACT_MASS>
435.113391549

> <IUPAC_NAME>
(2R,4S)-1-[(4-butoxybenzene)sulfonyl]-N-hydroxy-4-methanesulfonamidopyrrolidine-2-carboxamide

> <IUPAC_TRADITIONAL_NAME>
(2R,4S)-1-(4-butoxybenzenesulfonyl)-N-hydroxy-4-methanesulfonamidopyrrolidine-2-carboxamide

> <INCHI_IDENTIFIER>
InChI=1S/C16H25N3O7S2/c1-3-4-9-26-13-5-7-14(8-6-13)28(24,25)19-11-12(18-27(2,22)23)10-15(19)16(20)17-21/h5-8,12,15,18,21H,3-4,9-11H2,1-2H3,(H,17,20)/t12-,15+/m0/s1

> <INCHI_KEY>
InChIKey=ULDXUWXTVRRUND-SWLSCSKDSA-N

> <SMILES>
CCCCOC1=CC=C(C=C1)S(=O)(=O)N1C[C@H](C[C@@H]1C(=O)NO)NS(C)(=O)=O

> <JCHEM_ACCEPTOR_COUNT>
7

> <JCHEM_DONOR_COUNT>
3

> <JCHEM_ACIDIC_PKA>
8.71

> <JCHEM_BASIC_PKA>
-4.9

> <JCHEM_PHYSIOLOGICAL_CHARGE>
0

> <ALOGPS_LOGP>
0.2

> <JCHEM_LOGP>
-0.46

> <ALOGPS_LOGS>
-3

> <JCHEM_POLARIZABILITY>
43.6

> <JCHEM_POLAR_SURFACE_AREA>
142.11

> <JCHEM_REFRACTIVITY>
101.32

> <JCHEM_ROTATABLE_BOND_COUNT>
7

> <ALOGPS_SOLUBILITY>
4.59e-01 g/l __ 

$$$$
