
  Mrv0541 02231215542D          

 32 34  0  0  1  0            999 V2000
   -7.1447    2.4750    0.0000 N   0  0  0  0  0  0  0  0  0  0  0  0
   -6.4302    2.8875    0.0000 C   0  0  0  0  0  0  0  0  0  0  0  0
   -5.7158    2.4750    0.0000 N   0  0  0  0  0  0  0  0  0  0  0  0
   -5.0013    2.8875    0.0000 C   0  0  0  0  0  0  0  0  0  0  0  0
   -5.0013    3.7125    0.0000 C   0  0  0  0  0  0  0  0  0  0  0  0
   -4.2868    4.1250    0.0000 N   0  0  0  0  0  0  0  0  0  0  0  0
   -3.5724    3.7125    0.0000 C   0  0  2  0  0  0  0  0  0  0  0  0
   -2.8579    4.1250    0.0000 C   0  0  0  0  0  0  0  0  0  0  0  0
   -2.8579    4.9500    0.0000 N   0  0  0  0  0  0  0  0  0  0  0  0
   -2.1434    5.3625    0.0000 C   0  0  0  0  0  0  0  0  0  0  0  0
   -2.1434    6.1875    0.0000 C   0  0  0  0  0  0  0  0  0  0  0  0
   -1.4289    6.6000    0.0000 C   0  0  0  0  0  0  0  0  0  0  0  0
   -0.7145    6.1875    0.0000 C   0  0  0  0  0  0  0  0  0  0  0  0
   -0.7145    5.3625    0.0000 C   0  0  0  0  0  0  0  0  0  0  0  0
   -1.4289    4.9500    0.0000 C   0  0  0  0  0  0  0  0  0  0  0  0
    0.0000    6.6000    0.0000 C   0  0  0  0  0  0  0  0  0  0  0  0
    0.0000    7.4250    0.0000 O   0  0  0  0  0  0  0  0  0  0  0  0
    0.7145    6.1875    0.0000 N   0  0  0  0  0  0  0  0  0  0  0  0
    1.4289    6.6000    0.0000 C   0  0  2  0  0  0  0  0  0  0  0  0
    2.1434    6.1875    0.0000 C   0  0  0  0  0  0  0  0  0  0  0  0
    2.8579    6.6000    0.0000 C   0  0  0  0  0  0  0  0  0  0  0  0
    3.5724    6.1875    0.0000 C   0  0  0  0  0  0  0  0  0  0  0  0
    4.2868    6.6000    0.0000 O   0  0  0  0  0  0  0  0  0  0  0  0
    3.5724    5.3625    0.0000 O   0  0  0  0  0  0  0  0  0  0  0  0
    1.4289    7.4250    0.0000 C   0  0  0  0  0  0  0  0  0  0  0  0
    2.1434    7.8375    0.0000 O   0  0  0  0  0  0  0  0  0  0  0  0
    0.7145    7.8375    0.0000 O   0  0  0  0  0  0  0  0  0  0  0  0
   -3.5724    2.8875    0.0000 C   0  0  0  0  0  0  0  0  0  0  0  0
   -4.2868    2.4750    0.0000 N   0  0  0  0  0  0  0  0  0  0  0  0
   -5.7158    4.1250    0.0000 C   0  0  0  0  0  0  0  0  0  0  0  0
   -5.7158    4.9500    0.0000 O   0  0  0  0  0  0  0  0  0  0  0  0
   -6.4302    3.7125    0.0000 N   0  0  0  0  0  0  0  0  0  0  0  0
  1  2  1  0  0  0  0
  2  3  2  0  0  0  0
  3  4  1  0  0  0  0
  4  5  2  0  0  0  0
  5  6  1  0  0  0  0
  6  7  1  0  0  0  0
  7  8  1  6  0  0  0
  8  9  1  0  0  0  0
  9 10  1  0  0  0  0
 10 11  2  0  0  0  0
 11 12  1  0  0  0  0
 12 13  2  0  0  0  0
 13 14  1  0  0  0  0
 14 15  2  0  0  0  0
 10 15  1  0  0  0  0
 13 16  1  0  0  0  0
 16 17  2  0  0  0  0
 16 18  1  0  0  0  0
 19 18  1  1  0  0  0
 19 20  1  0  0  0  0
 20 21  1  0  0  0  0
 21 22  1  0  0  0  0
 22 23  1  0  0  0  0
 22 24  2  0  0  0  0
 19 25  1  0  0  0  0
 25 26  1  0  0  0  0
 25 27  2  0  0  0  0
  7 28  1  0  0  0  0
 28 29  1  0  0  0  0
  4 29  1  0  0  0  0
  5 30  1  0  0  0  0
 30 31  2  0  0  0  0
 30 32  1  0  0  0  0
  2 32  1  0  0  0  0
M  END
> <DRUGBANK_ID>
DB02031

> <DRUG_GROUPS>
experimental

> <GENERIC_NAME>
(6s)-5,6,7,8-Tetrahydrofolate

> <CHEMICAL_FORMULA>
C19H23N7O6

> <MOLECULAR_WEIGHT>
445.4292

> <EXACT_MASS>
445.170981503

> <IUPAC_NAME>
(2R)-2-{[4-({[(6R)-2-amino-4-oxo-3,4,5,6,7,8-hexahydropteridin-6-yl]methyl}amino)phenyl]formamido}pentanedioic acid

> <IUPAC_TRADITIONAL_NAME>
(2R)-2-{[4-({[(6R)-2-amino-4-oxo-5,6,7,8-tetrahydro-3H-pteridin-6-yl]methyl}amino)phenyl]formamido}pentanedioic acid

> <INCHI_IDENTIFIER>
InChI=1S/C19H23N7O6/c20-19-25-15-14(17(30)26-19)23-11(8-22-15)7-21-10-3-1-9(2-4-10)16(29)24-12(18(31)32)5-6-13(27)28/h1-4,11-12,21,23H,5-8H2,(H,24,29)(H,27,28)(H,31,32)(H4,20,22,25,26,30)/t11-,12-/m1/s1

> <INCHI_KEY>
InChIKey=MSTNYGQPCMXVAQ-VXGBXAGGSA-N

> <SMILES>
NC1=NC2=C(N[C@H](CNC3=CC=C(C=C3)C(=O)N[C@H](CCC(O)=O)C(O)=O)CN2)C(=O)N1

> <JCHEM_ACCEPTOR_COUNT>
11

> <JCHEM_DONOR_COUNT>
8

> <JCHEM_ACIDIC_PKA>
3.2

> <JCHEM_BASIC_PKA>
4.62

> <JCHEM_PHYSIOLOGICAL_CHARGE>
-2

> <ALOGPS_LOGP>
-1.5

> <JCHEM_LOGP>
-3.2

> <ALOGPS_LOGS>
-3.2

> <JCHEM_POLARIZABILITY>
43.98

> <JCHEM_POLAR_SURFACE_AREA>
207.27

> <JCHEM_REFRACTIVITY>
121.59

> <JCHEM_ROTATABLE_BOND_COUNT>
9

> <ALOGPS_SOLUBILITY>
2.88e-01 g/l __ 

$$$$
