
  Mrv0541 02231216092D          

  9  9  0  0  0  0            999 V2000
    2.1434    1.2375    0.0000 C   0  0  0  0  0  0  0  0  0  0  0  0
    1.4289    0.8250    0.0000 C   0  0  0  0  0  0  0  0  0  0  0  0
    1.4289    0.0000    0.0000 C   0  0  0  0  0  0  0  0  0  0  0  0
    0.7145   -0.4125    0.0000 N   0  0  0  0  0  0  0  0  0  0  0  0
    0.0000    0.0000    0.0000 C   0  0  0  0  0  0  0  0  0  0  0  0
   -0.7145   -0.4125    0.0000 C   0  0  0  0  0  0  0  0  0  0  0  0
    0.0000    0.8250    0.0000 N   0  0  0  0  0  0  0  0  0  0  0  0
    0.7145    1.2375    0.0000 C   0  0  0  0  0  0  0  0  0  0  0  0
    0.7145    2.0625    0.0000 N   0  0  0  0  0  0  0  0  0  0  0  0
  1  2  1  0  0  0  0
  2  3  2  0  0  0  0
  3  4  1  0  0  0  0
  4  5  2  0  0  0  0
  5  6  1  0  0  0  0
  5  7  1  0  0  0  0
  7  8  2  0  0  0  0
  2  8  1  0  0  0  0
  8  9  1  0  0  0  0
M  END
> <DRUGBANK_ID>
DB02372

> <DRUG_GROUPS>
experimental

> <GENERIC_NAME>
2,5-Dimethylpyrimidin-4-Amine

> <CHEMICAL_FORMULA>
C6H9N3

> <MOLECULAR_WEIGHT>
123.1558

> <EXACT_MASS>
123.079647303

> <IUPAC_NAME>
2,5-dimethylpyrimidin-4-amine

> <IUPAC_TRADITIONAL_NAME>
2,5-dimethylpyrimidin-4-amine

> <INCHI_IDENTIFIER>
InChI=1S/C6H9N3/c1-4-3-8-5(2)9-6(4)7/h3H,1-2H3,(H2,7,8,9)

> <INCHI_KEY>
InChIKey=UXKNAXNFIYFMIB-UHFFFAOYSA-N

> <SMILES>
CC1=CN=C(C)N=C1N

> <JCHEM_ACCEPTOR_COUNT>
3

> <JCHEM_DONOR_COUNT>
1

> <JCHEM_BASIC_PKA>
6.35

> <JCHEM_PHYSIOLOGICAL_CHARGE>
0

> <ALOGPS_LOGP>
0.4

> <JCHEM_LOGP>
0.9

> <ALOGPS_LOGS>
-0.44

> <JCHEM_POLARIZABILITY>
13.28

> <JCHEM_POLAR_SURFACE_AREA>
51.8

> <JCHEM_REFRACTIVITY>
37.4

> <JCHEM_ROTATABLE_BOND_COUNT>
0

> <ALOGPS_SOLUBILITY>
4.44e+01 g/l __ 

$$$$
