FOK
  Mrv0541 02231216182D          

 33 35  0  0  0  0            999 V2000
   -0.9188   -1.3028    0.0000 C   0  0  1  0  0  0  0  0  0  0  0  0
   -0.5063   -2.0173    0.0000 O   0  0  0  0  0  0  0  0  0  0  0  0
   -1.7438   -1.3028    0.0000 C   0  0  0  0  0  0  0  0  0  0  0  0
   -2.1563   -0.5884    0.0000 C   0  0  0  0  0  0  0  0  0  0  0  0
   -1.7438    0.1261    0.0000 C   0  0  0  0  0  0  0  0  0  0  0  0
   -0.9188    0.1261    0.0000 C   0  0  2  0  0  0  0  0  0  0  0  0
   -0.5063    0.8406    0.0000 C   0  0  2  0  0  0  0  0  0  0  0  0
   -0.9188    1.5551    0.0000 O   0  0  0  0  0  0  0  0  0  0  0  0
    0.3187    0.8406    0.0000 C   0  0  2  0  0  0  0  0  0  0  0  0
    0.7312    1.5551    0.0000 O   0  0  0  0  0  0  0  0  0  0  0  0
    0.7312    0.1261    0.0000 C   0  0  1  0  0  0  0  0  0  0  0  0
    1.5562    0.1261    0.0000 O   0  0  0  0  0  0  0  0  0  0  0  0
    0.3187   -0.5884    0.0000 C   0  0  1  0  0  0  0  0  0  0  0  0
   -0.0938   -1.3028    0.0000 O   0  0  0  0  0  0  0  0  0  0  0  0
   -0.5063   -0.5884    0.0000 C   0  0  1  0  0  0  0  0  0  0  0  0
    0.7312   -1.3028    0.0000 C   0  0  0  0  0  0  0  0  0  0  0  0
    0.3187   -2.0173    0.0000 O   0  0  0  0  0  0  0  0  0  0  0  0
    1.5562   -1.3028    0.0000 C   0  0  0  0  0  0  0  0  0  0  0  0
    1.9687   -0.5884    0.0000 C   0  0  2  0  0  0  0  0  0  0  0  0
    2.6971   -0.9757    0.0000 C   0  0  0  0  0  0  0  0  0  0  0  0
    2.7259   -1.8002    0.0000 C   0  0  0  0  0  0  0  0  0  0  0  0
    2.6971   -0.2010    0.0000 C   0  0  0  0  0  0  0  0  0  0  0  0
    1.1437    0.8406    0.0000 C   0  0  0  0  0  0  0  0  0  0  0  0
   -2.4435    0.5633    0.0000 C   0  0  0  0  0  0  0  0  0  0  0  0
   -1.7726    0.9506    0.0000 C   0  0  0  0  0  0  0  0  0  0  0  0
   -0.5926   -1.4088    0.0000 C   0  0  0  0  0  0  0  0  0  0  0  0
    0.3187    2.2695    0.0000 C   0  0  0  0  0  0  0  0  0  0  0  0
   -0.5063    2.2695    0.0000 O   0  0  0  0  0  0  0  0  0  0  0  0
    0.7312    2.9840    0.0000 C   0  0  0  0  0  0  0  0  0  0  0  0
   -1.3661   -1.6782    0.0000 H   0  0  0  0  0  0  0  0  0  0  0  0
   -1.3661    0.5015    0.0000 H   0  0  0  0  0  0  0  0  0  0  0  0
   -0.9536    1.2159    0.0000 H   0  0  0  0  0  0  0  0  0  0  0  0
    0.0267    1.3463    0.0000 H   0  0  0  0  0  0  0  0  0  0  0  0
  1  2  1  1  0  0  0
  1  3  1  0  0  0  0
  1 15  1  0  0  0  0
  1 30  1  6  0  0  0
  3  4  1  0  0  0  0
  4  5  1  0  0  0  0
  5  6  1  0  0  0  0
  5 24  1  0  0  0  0
  5 25  1  0  0  0  0
  6  7  1  0  0  0  0
  6 15  1  0  0  0  0
  6 31  1  1  0  0  0
  7  8  1  6  0  0  0
  7  9  1  0  0  0  0
  7 32  1  1  0  0  0
  9 10  1  6  0  0  0
  9 11  1  0  0  0  0
  9 33  1  1  0  0  0
 10 27  1  0  0  0  0
 11 12  1  0  0  0  0
 11 13  1  0  0  0  0
 11 23  1  6  0  0  0
 12 19  1  0  0  0  0
 13 14  1  1  0  0  0
 13 15  1  0  0  0  0
 13 16  1  0  0  0  0
 15 26  1  6  0  0  0
 16 17  2  0  0  0  0
 16 18  1  0  0  0  0
 18 19  1  0  0  0  0
 19 20  1  1  0  0  0
 19 22  1  6  0  0  0
 20 21  2  0  0  0  0
 27 28  2  0  0  0  0
 27 29  1  0  0  0  0
M  END
> <DRUGBANK_ID>
DB02587

> <DRUG_GROUPS>
experimental

> <GENERIC_NAME>
Forskolin

> <CHEMICAL_FORMULA>
C22H34O7

> <MOLECULAR_WEIGHT>
410.5012

> <EXACT_MASS>
410.230453442

> <IUPAC_NAME>
(3R,4aR,5S,6S,6aS,10S,10aR,10bS)-3-ethenyl-6,10,10b-trihydroxy-3,4a,7,7,10a-pentamethyl-1-oxo-dodecahydro-1H-naphtho[2,1-b]pyran-5-yl acetate

> <IUPAC_TRADITIONAL_NAME>
forskolin

> <INCHI_IDENTIFIER>
InChI=1S/C22H34O7/c1-8-19(5)11-14(25)22(27)20(6)13(24)9-10-18(3,4)16(20)15(26)17(28-12(2)23)21(22,7)29-19/h8,13,15-17,24,26-27H,1,9-11H2,2-7H3/t13-,15-,16-,17-,19-,20-,21+,22-/m0/s1

> <INCHI_KEY>
InChIKey=OHCQJHSOBUTRHG-KGGHGJDLSA-N

> <SMILES>
[H][C@]1(O)CCC(C)(C)[C@]2([H])[C@]([H])(O)[C@]([H])(OC(C)=O)[C@@]3(C)O[C@](C)(CC(=O)[C@]3(O)[C@@]12C)C=C

> <JCHEM_ACCEPTOR_COUNT>
6

> <JCHEM_DONOR_COUNT>
3

> <JCHEM_ACIDIC_PKA>
11.57

> <JCHEM_BASIC_PKA>
-3

> <JCHEM_PHYSIOLOGICAL_CHARGE>
0

> <ALOGPS_LOGP>
1.28

> <JCHEM_LOGP>
1.36

> <ALOGPS_LOGS>
-2.6

> <JCHEM_POLARIZABILITY>
43.33

> <JCHEM_POLAR_SURFACE_AREA>
113.29

> <JCHEM_REFRACTIVITY>
104.47

> <JCHEM_ROTATABLE_BOND_COUNT>
3

> <ALOGPS_SOLUBILITY>
1.10e+00 g/l __ 

$$$$
