
  Mrv0541 02231216042D          

  6  5  0  0  0  0            999 V2000
   -0.1914    0.7146    0.0000 C   0  0  0  0  0  0  0  0  0  0  0  0
    0.5230    1.1271    0.0000 C   0  0  0  0  0  0  0  0  0  0  0  0
    1.2376    0.7146    0.0000 O   0  0  0  0  0  0  0  0  0  0  0  0
    1.9521    1.1271    0.0000 C   0  0  0  0  0  0  0  0  0  0  0  0
    2.6666    0.7146    0.0000 C   0  0  0  0  0  0  0  0  0  0  0  0
    3.3812    1.1271    0.0000 O   0  0  0  0  0  0  0  0  0  0  0  0
  1  2  1  0  0  0  0
  2  3  1  0  0  0  0
  3  4  1  0  0  0  0
  4  5  1  0  0  0  0
  5  6  1  0  0  0  0
M  END
> <DRUGBANK_ID>
DB02249

> <DRUG_GROUPS>
experimental

> <GENERIC_NAME>
2-Ethoxyethanol

> <CHEMICAL_FORMULA>
C4H10O2

> <MOLECULAR_WEIGHT>
90.121

> <EXACT_MASS>
90.068079564

> <IUPAC_NAME>
2-ethoxyethan-1-ol

> <IUPAC_TRADITIONAL_NAME>
2-ethoxyethanol

> <INCHI_IDENTIFIER>
InChI=1S/C4H10O2/c1-2-6-4-3-5/h5H,2-4H2,1H3

> <INCHI_KEY>
InChIKey=ZNQVEEAIQZEUHB-UHFFFAOYSA-N

> <SMILES>
CCOCCO

> <JCHEM_ACCEPTOR_COUNT>
2

> <JCHEM_DONOR_COUNT>
1

> <JCHEM_ACIDIC_PKA>
15.12

> <JCHEM_BASIC_PKA>
-2.7

> <JCHEM_PHYSIOLOGICAL_CHARGE>
0

> <ALOGPS_LOGP>
-0.28

> <JCHEM_LOGP>
-0.21

> <ALOGPS_LOGS>
0.81

> <JCHEM_POLARIZABILITY>
10.27

> <JCHEM_POLAR_SURFACE_AREA>
29.46

> <JCHEM_REFRACTIVITY>
24.05

> <JCHEM_ROTATABLE_BOND_COUNT>
3

> <ALOGPS_SOLUBILITY>
5.85e+02 g/l __ 

$$$$
