
  Mrv0541 02231216352D          

 11 10  0  0  0  0            999 V2000
    4.6184    2.6664    0.0000 O   0  0  0  0  0  0  0  0  0  0  0  0
    4.6184    1.8414    0.0000 N   0  0  0  0  0  0  0  0  0  0  0  0
    3.9039    1.4289    0.0000 C   0  0  0  0  0  0  0  0  0  0  0  0
    3.1895    1.8414    0.0000 C   0  0  0  0  0  0  0  0  0  0  0  0
    2.4750    1.4289    0.0000 C   0  0  0  0  0  0  0  0  0  0  0  0
    1.7605    1.8414    0.0000 P   0  0  0  0  0  0  0  0  0  0  0  0
    1.0461    2.2539    0.0000 O   0  0  0  0  0  0  0  0  0  0  0  0
    1.3480    1.1270    0.0000 O   0  0  0  0  0  0  0  0  0  0  0  0
    2.1730    2.5559    0.0000 O   0  0  0  0  0  0  0  0  0  0  0  0
    5.3329    1.4289    0.0000 C   0  0  0  0  0  0  0  0  0  0  0  0
    6.0474    1.8414    0.0000 O   0  0  0  0  0  0  0  0  0  0  0  0
  1  2  1  0  0  0  0
  2  3  1  0  0  0  0
  3  4  1  0  0  0  0
  4  5  1  0  0  0  0
  5  6  1  0  0  0  0
  6  7  1  0  0  0  0
  6  8  1  0  0  0  0
  6  9  2  0  0  0  0
  2 10  1  0  0  0  0
 10 11  2  0  0  0  0
M  END
> <DRUGBANK_ID>
DB02948

> <DRUG_GROUPS>
experimental

> <GENERIC_NAME>
Fosmidomycin

> <CHEMICAL_FORMULA>
C4H10NO5P

> <MOLECULAR_WEIGHT>
183.0997

> <EXACT_MASS>
183.029658947

> <IUPAC_NAME>
[3-(N-hydroxyformamido)propyl]phosphonic acid

> <IUPAC_TRADITIONAL_NAME>
3-(N-hydroxyformamido)propylphosphonic acid

> <INCHI_IDENTIFIER>
InChI=1S/C4H10NO5P/c6-4-5(7)2-1-3-11(8,9)10/h4,7H,1-3H2,(H2,8,9,10)

> <INCHI_KEY>
InChIKey=GJXWDTUCERCKIX-UHFFFAOYSA-N

> <SMILES>
ON(CCCP(O)(O)=O)C=O

> <JCHEM_ACCEPTOR_COUNT>
5

> <JCHEM_DONOR_COUNT>
3

> <JCHEM_ACIDIC_PKA>
1.81

> <JCHEM_BASIC_PKA>
-5.6

> <JCHEM_PHYSIOLOGICAL_CHARGE>
-1

> <ALOGPS_LOGP>
-1.1

> <JCHEM_LOGP>
-2.2

> <ALOGPS_LOGS>
-0.92

> <JCHEM_POLARIZABILITY>
15.06

> <JCHEM_POLAR_SURFACE_AREA>
98.07

> <JCHEM_REFRACTIVITY>
36.83

> <JCHEM_ROTATABLE_BOND_COUNT>
4

> <ALOGPS_SOLUBILITY>
2.19e+01 g/l __ 

$$$$
