PRD
  Mrv0541 02231216182D          

 25 27  0  0  0  0            999 V2000
    2.2292    0.4429    0.0000 C   0  0  0  0  0  0  0  0  0  0  0  0
    2.2292    1.2679    0.0000 C   0  0  0  0  0  0  0  0  0  0  0  0
    2.9436    1.6804    0.0000 N   0  0  0  0  0  0  0  0  0  0  0  0
    1.5147    1.6804    0.0000 N   0  0  0  0  0  0  0  0  0  0  0  0
    0.8002    1.2679    0.0000 C   0  0  0  0  0  0  0  0  0  0  0  0
    0.8002    0.4429    0.0000 C   0  0  0  0  0  0  0  0  0  0  0  0
    0.0858    0.0304    0.0000 N   0  0  0  0  0  0  0  0  0  0  0  0
    0.0858   -0.7946    0.0000 C   0  0  0  0  0  0  0  0  0  0  0  0
    1.5147    0.0304    0.0000 C   0  0  0  0  0  0  0  0  0  0  0  0
    2.9436    0.0304    0.0000 C   0  0  0  0  0  0  0  0  0  0  0  0
    2.9436   -0.7946    0.0000 N   0  0  0  0  0  0  0  0  0  0  0  0
    3.6581    0.4429    0.0000 N   0  0  0  0  0  0  0  0  0  0  0  0
    3.6581    1.2679    0.0000 C   0  0  0  0  0  0  0  0  0  0  0  0
    4.3726    1.6804    0.0000 N   0  0  0  0  0  0  0  0  0  0  0  0
   -0.6287    0.4429    0.0000 C   0  0  0  0  0  0  0  0  0  0  0  0
   -1.3432    0.0304    0.0000 C   0  0  0  0  0  0  0  0  0  0  0  0
   -1.3432   -0.7946    0.0000 C   0  0  0  0  0  0  0  0  0  0  0  0
   -2.0577   -1.2071    0.0000 C   0  0  0  0  0  0  0  0  0  0  0  0
   -2.7721   -0.7946    0.0000 C   0  0  0  0  0  0  0  0  0  0  0  0
   -2.7721    0.0304    0.0000 C   0  0  0  0  0  0  0  0  0  0  0  0
   -2.0577    0.4429    0.0000 C   0  0  0  0  0  0  0  0  0  0  0  0
   -0.6287   -1.2071    0.0000 O   0  0  0  0  0  0  0  0  0  0  0  0
   -0.6287   -2.0321    0.0000 C   0  0  0  0  0  0  0  0  0  0  0  0
   -3.4866    0.4429    0.0000 O   0  0  0  0  0  0  0  0  0  0  0  0
   -4.2011    0.0304    0.0000 C   0  0  0  0  0  0  0  0  0  0  0  0
  1  2  2  0  0  0  0
  1  9  1  0  0  0  0
  1 10  1  0  0  0  0
  2  3  1  0  0  0  0
  2  4  1  0  0  0  0
  3 13  2  0  0  0  0
  4  5  2  0  0  0  0
  5  6  1  0  0  0  0
  6  7  1  0  0  0  0
  6  9  2  0  0  0  0
  7  8  1  0  0  0  0
  7 15  1  0  0  0  0
 10 11  1  0  0  0  0
 10 12  2  0  0  0  0
 12 13  1  0  0  0  0
 13 14  1  0  0  0  0
 15 16  1  0  0  0  0
 16 17  2  0  0  0  0
 16 21  1  0  0  0  0
 17 18  1  0  0  0  0
 17 22  1  0  0  0  0
 18 19  2  0  0  0  0
 19 20  1  0  0  0  0
 20 21  2  0  0  0  0
 20 24  1  0  0  0  0
 22 23  1  0  0  0  0
 24 25  1  0  0  0  0
M  END
> <DRUGBANK_ID>
DB02583

> <DRUG_GROUPS>
experimental

> <GENERIC_NAME>
N6-(2,5-Dimethoxy-Benzyl)-N6-Methyl-Pyrido[2,3-D]Pyrimidine-2,4,6-Triamine

> <CHEMICAL_FORMULA>
C17H20N6O2

> <MOLECULAR_WEIGHT>
340.3797

> <EXACT_MASS>
340.164773914

> <IUPAC_NAME>
6-N-[(2,5-dimethoxyphenyl)methyl]-6-N-methylpyrido[2,3-d]pyrimidine-2,4,6-triamine

> <IUPAC_TRADITIONAL_NAME>
6-N-[(2,5-dimethoxyphenyl)methyl]-6-N-methylpyrido[2,3-d]pyrimidine-2,4,6-triamine

> <INCHI_IDENTIFIER>
InChI=1S/C17H20N6O2/c1-23(9-10-6-12(24-2)4-5-14(10)25-3)11-7-13-15(18)21-17(19)22-16(13)20-8-11/h4-8H,9H2,1-3H3,(H4,18,19,20,21,22)

> <INCHI_KEY>
InChIKey=HZTFNSCZLJLPEO-UHFFFAOYSA-N

> <SMILES>
COC1=CC(CN(C)C2=CC3=C(N=C2)N=C(N)N=C3N)=C(OC)C=C1

> <JCHEM_ACCEPTOR_COUNT>
8

> <JCHEM_DONOR_COUNT>
2

> <JCHEM_ACIDIC_PKA>
16.08

> <JCHEM_BASIC_PKA>
4.3

> <JCHEM_PHYSIOLOGICAL_CHARGE>
0

> <ALOGPS_LOGP>
2.14

> <JCHEM_LOGP>
1.66

> <ALOGPS_LOGS>
-3

> <JCHEM_POLARIZABILITY>
36.41

> <JCHEM_POLAR_SURFACE_AREA>
112.41

> <JCHEM_REFRACTIVITY>
99.84

> <JCHEM_ROTATABLE_BOND_COUNT>
5

> <ALOGPS_SOLUBILITY>
3.53e-01 g/l __ 

$$$$
