
  Mrv0541 02231216342D          

 20 21  0  0  1  0            999 V2000
    2.1023   -0.9055    0.0000 C    0  0  0  0  0  0  0  0  0  0  0  0
    1.9590   -1.7180    0.0000 C    0  0  0  0  0  0  0  0  0  0  0  0
    2.5910   -2.2483    0.0000 C    0  0  2  0  0  0  0  0  0  0  0  0
    3.0035   -2.9627    0.0000 C    0  0  2  0  0  0  0  0  0  0  0  0
    3.7180   -3.3752    0.0000 C    0  0  0  0  0  0  0  0  0  0  0  0
    2.1785   -2.9627    0.0000 C    0  0  0  0  0  0  0  0  0  0  0  0
    1.8298   -3.7105    0.0000 Cl   0  0  0  0  0  0  0  0  0  0  0  0
    1.3566   -2.8908    0.0000 Cl   0  0  0  0  0  0  0  0  0  0  0  0
    3.2230   -1.7180    0.0000 C    0  0  0  0  0  0  0  0  0  0  0  0
    3.0797   -0.9055    0.0000 O    0  0  0  0  0  0  0  0  0  0  0  0
    3.9982   -2.0001    0.0000 N    0  0  0  0  0  0  0  0  0  0  0  0
    4.6302   -1.4698    0.0000 C    0  0  1  0  0  0  0  0  0  0  0  0
    4.4870   -0.6574    0.0000 C    0  0  0  0  0  0  0  0  0  0  0  0
    5.4055   -1.7520    0.0000 C    0  0  0  0  0  0  0  0  0  0  0  0
    6.0375   -1.2217    0.0000 C    0  0  0  0  0  0  0  0  0  0  0  0
    6.8127   -1.5039    0.0000 C    0  0  0  0  0  0  0  0  0  0  0  0
    6.9560   -2.3163    0.0000 C    0  0  0  0  0  0  0  0  0  0  0  0
    7.7312   -2.5985    0.0000 Cl   0  0  0  0  0  0  0  0  0  0  0  0
    6.3240   -2.8466    0.0000 C    0  0  0  0  0  0  0  0  0  0  0  0
    5.5487   -2.5645    0.0000 C    0  0  0  0  0  0  0  0  0  0  0  0
  1  2  1  0  0  0  0
  3  2  1  6  0  0  0
  3  4  1  0  0  0  0
  4  5  1  6  0  0  0
  4  6  1  0  0  0  0
  3  6  1  0  0  0  0
  6  7  1  0  0  0  0
  6  8  1  0  0  0  0
  3  9  1  1  0  0  0
  9 10  2  0  0  0  0
  9 11  1  0  0  0  0
 11 12  1  0  0  0  0
 12 13  1  1  0  0  0
 12 14  1  0  0  0  0
 14 15  2  0  0  0  0
 15 16  1  0  0  0  0
 16 17  2  0  0  0  0
 17 18  1  0  0  0  0
 17 19  1  0  0  0  0
 19 20  2  0  0  0  0
 14 20  1  0  0  0  0
M  END
> <DRUGBANK_ID>
DB02946

> <DRUG_GROUPS>
experimental

> <GENERIC_NAME>
Carpropamide

> <CHEMICAL_FORMULA>
C15H18Cl3NO

> <MOLECULAR_WEIGHT>
334.669

> <EXACT_MASS>
333.045397324

> <IUPAC_NAME>
(1R,3S)-2,2-dichloro-N-[(1S)-1-(4-chlorophenyl)ethyl]-1-ethyl-3-methylcyclopropane-1-carboxamide

> <IUPAC_TRADITIONAL_NAME>
carpropamide

> <INCHI_IDENTIFIER>
InChI=1S/C15H18Cl3NO/c1-4-14(10(3)15(14,17)18)13(20)19-9(2)11-5-7-12(16)8-6-11/h5-10H,4H2,1-3H3,(H,19,20)/t9-,10-,14+/m0/s1

> <INCHI_KEY>
InChIKey=RXDMAYSSBPYBFW-PKFCDNJMSA-N

> <SMILES>
CC[C@@]1([C@H](C)C1(Cl)Cl)C(=O)N[C@@H](C)C1=CC=C(Cl)C=C1

> <JCHEM_ACCEPTOR_COUNT>
1

> <JCHEM_DONOR_COUNT>
1

> <JCHEM_ACIDIC_PKA>
11.81

> <JCHEM_BASIC_PKA>
-1.8

> <JCHEM_PHYSIOLOGICAL_CHARGE>
0

> <ALOGPS_LOGP>
4.7

> <JCHEM_LOGP>
4.94

> <ALOGPS_LOGS>
-5.7

> <JCHEM_POLARIZABILITY>
33.01

> <JCHEM_POLAR_SURFACE_AREA>
29.1

> <JCHEM_REFRACTIVITY>
84.28

> <JCHEM_ROTATABLE_BOND_COUNT>
4

> <ALOGPS_SOLUBILITY>
6.05e-04 g/l __ 

$$$$
