
  Mrv0541 02231216082D          

 32 33  0  0  1  0            999 V2000
   -2.8579   -4.9500    0.0000 C   0  0  0  0  0  0  0  0  0  0  0  0
   -2.1434   -4.5375    0.0000 C   0  0  0  0  0  0  0  0  0  0  0  0
   -1.4289   -4.9500    0.0000 C   0  0  0  0  0  0  0  0  0  0  0  0
   -0.7145   -4.5375    0.0000 C   0  0  0  0  0  0  0  0  0  0  0  0
    0.0000   -4.9500    0.0000 C   0  0  0  0  0  0  0  0  0  0  0  0
    0.7145   -4.5375    0.0000 C   0  0  0  0  0  0  0  0  0  0  0  0
    1.4289   -4.9500    0.0000 C   0  0  0  0  0  0  0  0  0  0  0  0
    2.1434   -4.5375    0.0000 C   0  0  0  0  0  0  0  0  0  0  0  0
    2.1434   -3.7125    0.0000 O   0  0  0  0  0  0  0  0  0  0  0  0
    2.8579   -4.9500    0.0000 O   0  0  0  0  0  0  0  0  0  0  0  0
    3.5724   -4.5375    0.0000 C   0  0  2  0  0  0  0  0  0  0  0  0
    3.5724   -3.7125    0.0000 C   0  0  1  0  0  0  0  0  0  0  0  0
    2.8579   -3.3000    0.0000 O   0  0  0  0  0  0  0  0  0  0  0  0
    4.2868   -3.3000    0.0000 C   0  0  2  0  0  0  0  0  0  0  0  0
    4.2868   -2.4750    0.0000 C   0  0  0  0  0  0  0  0  0  0  0  0
    5.0013   -2.0625    0.0000 O   0  0  0  0  0  0  0  0  0  0  0  0
    5.0013   -3.7125    0.0000 O   0  0  0  0  0  0  0  0  0  0  0  0
    5.0013   -4.5375    0.0000 C   0  0  2  0  0  0  0  0  0  0  0  0
    5.7158   -4.9500    0.0000 O   0  0  0  0  0  0  0  0  0  0  0  0
    6.4302   -4.5375    0.0000 C   0  0  1  0  0  0  0  0  0  0  0  0
    6.7658   -5.2912    0.0000 C   0  0  0  0  0  0  0  0  0  0  0  0
    7.5863   -5.3774    0.0000 O   0  0  0  0  0  0  0  0  0  0  0  0
    5.9453   -3.8701    0.0000 O   0  0  0  0  0  0  0  0  0  0  0  0
    6.4302   -3.2026    0.0000 C   0  0  1  0  0  0  0  0  0  0  0  0
    6.1753   -2.4180    0.0000 C   0  0  0  0  0  0  0  0  0  0  0  0
    6.7273   -1.8049    0.0000 O   0  0  0  0  0  0  0  0  0  0  0  0
    7.2149   -3.4576    0.0000 C   0  0  2  0  0  0  0  0  0  0  0  0
    7.8823   -2.9726    0.0000 O   0  0  0  0  0  0  0  0  0  0  0  0
    7.2149   -4.2826    0.0000 C   0  0  1  0  0  0  0  0  0  0  0  0
    7.8823   -4.7675    0.0000 O   0  0  0  0  0  0  0  0  0  0  0  0
    4.2868   -4.9500    0.0000 C   0  0  1  0  0  0  0  0  0  0  0  0
    4.2868   -5.7750    0.0000 O   0  0  0  0  0  0  0  0  0  0  0  0
  1  2  1  0  0  0  0
  2  3  1  0  0  0  0
  3  4  1  0  0  0  0
  4  5  1  0  0  0  0
  5  6  1  0  0  0  0
  6  7  1  0  0  0  0
  7  8  1  0  0  0  0
  8  9  2  0  0  0  0
  8 10  1  0  0  0  0
 11 10  1  6  0  0  0
 11 12  1  0  0  0  0
 12 13  1  1  0  0  0
 12 14  1  0  0  0  0
 14 15  1  6  0  0  0
 15 16  1  0  0  0  0
 14 17  1  0  0  0  0
 17 18  1  0  0  0  0
 18 19  1  6  0  0  0
 20 19  1  1  0  0  0
 20 21  1  6  0  0  0
 21 22  1  0  0  0  0
 20 23  1  0  0  0  0
 23 24  1  0  0  0  0
 24 25  1  1  0  0  0
 25 26  1  0  0  0  0
 24 27  1  0  0  0  0
 27 28  1  6  0  0  0
 27 29  1  0  0  0  0
 20 29  1  0  0  0  0
 29 30  1  1  0  0  0
 18 31  1  0  0  0  0
 11 31  1  0  0  0  0
 31 32  1  1  0  0  0
M  END
> <DRUGBANK_ID>
DB02346

> <DRUG_GROUPS>
experimental

> <GENERIC_NAME>
3'-O-N-Octanoyl-a-D-Glucopyranosyl-B-D-Fructofuranoside

> <CHEMICAL_FORMULA>
C20H36O12

> <MOLECULAR_WEIGHT>
468.4926

> <EXACT_MASS>
468.220676616

> <IUPAC_NAME>
(2R,3S,4R,5S,6S)-2-{[(2R,3R,4R,5S)-3,4-dihydroxy-2,5-bis(hydroxymethyl)oxolan-2-yl]oxy}-3,5-dihydroxy-6-(hydroxymethyl)oxan-4-yl octanoate

> <IUPAC_TRADITIONAL_NAME>
(2R,3S,4R,5S,6S)-2-{[(2R,3R,4R,5S)-3,4-dihydroxy-2,5-bis(hydroxymethyl)oxolan-2-yl]oxy}-3,5-dihydroxy-6-(hydroxymethyl)oxan-4-yl octanoate

> <INCHI_IDENTIFIER>
InChI=1S/C20H36O12/c1-2-3-4-5-6-7-13(24)30-17-14(25)11(8-21)29-19(16(17)27)32-20(10-23)18(28)15(26)12(9-22)31-20/h11-12,14-19,21-23,25-28H,2-10H2,1H3/t11-,12-,14-,15-,16-,17+,18+,19+,20+/m0/s1

> <INCHI_KEY>
InChIKey=NMVDZWILYFXVBZ-GKXIIZDWSA-N

> <SMILES>
CCCCCCCC(=O)O[C@@H]1[C@@H](O)[C@H](CO)O[C@H](O[C@@]2(CO)O[C@@H](CO)[C@H](O)[C@H]2O)[C@H]1O

> <JCHEM_ACCEPTOR_COUNT>
11

> <JCHEM_DONOR_COUNT>
7

> <JCHEM_ACIDIC_PKA>
11.86

> <JCHEM_BASIC_PKA>
-3

> <JCHEM_PHYSIOLOGICAL_CHARGE>
0

> <ALOGPS_LOGP>
-0.79

> <JCHEM_LOGP>
-1.2

> <ALOGPS_LOGS>
-1.4

> <JCHEM_POLARIZABILITY>
47.32

> <JCHEM_POLAR_SURFACE_AREA>
195.6

> <JCHEM_REFRACTIVITY>
105.56

> <JCHEM_ROTATABLE_BOND_COUNT>
13

> <ALOGPS_SOLUBILITY>
1.69e+01 g/l __ 

$$$$
