
  Mrv0541 02231216002D          

  8  7  0  0  1  0            999 V2000
    2.0625    0.7145    0.0000 C   0  0  0  0  0  0  0  0  0  0  0  0
    1.2375    0.7145    0.0000 C   0  0  1  0  0  0  0  0  0  0  0  0
    0.8250    1.4289    0.0000 N   0  0  0  0  0  0  0  0  0  0  0  0
    1.2375    2.1434    0.0000 C   0  0  0  0  0  0  0  0  0  0  0  0
    0.0000    1.4289    0.0000 C   0  0  0  0  0  0  0  0  0  0  0  0
    0.8250    0.0000    0.0000 C   0  0  0  0  0  0  0  0  0  0  0  0
    1.2375   -0.7145    0.0000 O   0  0  0  0  0  0  0  0  0  0  0  0
    0.0000    0.0000    0.0000 O   0  0  0  0  0  0  0  0  0  0  0  0
  2  1  1  6  0  0  0
  2  3  1  0  0  0  0
  3  4  1  0  0  0  0
  3  5  1  0  0  0  0
  2  6  1  0  0  0  0
  6  7  1  0  0  0  0
  6  8  2  0  0  0  0
M  END
> <DRUGBANK_ID>
DB02167

> <DRUG_GROUPS>
experimental

> <GENERIC_NAME>
N,N-Dimethyl-L-Alanine

> <CHEMICAL_FORMULA>
C5H11NO2

> <MOLECULAR_WEIGHT>
117.1463

> <EXACT_MASS>
117.078978601

> <IUPAC_NAME>
(2R)-2-(dimethylamino)propanoic acid

> <IUPAC_TRADITIONAL_NAME>
N,N-dimethyl-L-alanine

> <INCHI_IDENTIFIER>
InChI=1S/C5H11NO2/c1-4(5(7)8)6(2)3/h4H,1-3H3,(H,7,8)/t4-/m1/s1

> <INCHI_KEY>
InChIKey=QCYOIFVBYZNUNW-SCSAIBSYSA-N

> <SMILES>
C[C@@H](N(C)C)C(O)=O

> <JCHEM_ACCEPTOR_COUNT>
3

> <JCHEM_DONOR_COUNT>
1

> <JCHEM_ACIDIC_PKA>
1.96

> <JCHEM_BASIC_PKA>
9.97

> <JCHEM_PHYSIOLOGICAL_CHARGE>
0

> <ALOGPS_LOGP>
-1.9

> <JCHEM_LOGP>
-2.5

> <ALOGPS_LOGS>
0.82

> <JCHEM_POLARIZABILITY>
12.35

> <JCHEM_POLAR_SURFACE_AREA>
40.54

> <JCHEM_REFRACTIVITY>
30.57

> <JCHEM_ROTATABLE_BOND_COUNT>
2

> <ALOGPS_SOLUBILITY>
7.74e+02 g/l __ 

$$$$
