
  Mrv0541 02231216292D          

 20 20  0  0  0  0            999 V2000
    0.0000   -3.3000    0.0000 C   0  0  0  0  0  0  0  0  0  0  0  0
    0.0000   -2.4750    0.0000 C   0  0  0  0  0  0  0  0  0  0  0  0
   -0.7145   -2.0625    0.0000 N   0  0  0  0  0  0  0  0  0  0  0  0
   -0.7145   -1.2375    0.0000 C   0  0  0  0  0  0  0  0  0  0  0  0
    0.0000   -0.8250    0.0000 C   0  0  0  0  0  0  0  0  0  0  0  0
    0.0000    0.0000    0.0000 C   0  0  0  0  0  0  0  0  0  0  0  0
   -0.7145    0.4125    0.0000 O   0  0  0  0  0  0  0  0  0  0  0  0
   -0.7145    1.2375    0.0000 P   0  0  0  0  0  0  0  0  0  0  0  0
   -0.7145    2.0625    0.0000 O   0  0  0  0  0  0  0  0  0  0  0  0
   -1.5395    1.2375    0.0000 O   0  0  0  0  0  0  0  0  0  0  0  0
    0.1105    1.2375    0.0000 O   0  0  0  0  0  0  0  0  0  0  0  0
    0.7145   -1.2375    0.0000 C   0  0  0  0  0  0  0  0  0  0  0  0
    1.4289   -0.8250    0.0000 C   0  0  0  0  0  0  0  0  0  0  0  0
    2.1434   -1.2375    0.0000 N   0  0  0  0  0  0  0  0  0  0  0  0
    2.8579   -0.8250    0.0000 C   0  0  0  0  0  0  0  0  0  0  0  0
    3.5724   -1.2375    0.0000 C   0  0  0  0  0  0  0  0  0  0  0  0
    4.2868   -0.8250    0.0000 O   0  0  0  0  0  0  0  0  0  0  0  0
    3.5724   -2.0625    0.0000 O   0  0  0  0  0  0  0  0  0  0  0  0
    0.7145   -2.0625    0.0000 C   0  0  0  0  0  0  0  0  0  0  0  0
    1.4289   -2.4750    0.0000 O   0  0  0  0  0  0  0  0  0  0  0  0
  1  2  1  0  0  0  0
  2  3  2  0  0  0  0
  3  4  1  0  0  0  0
  4  5  2  0  0  0  0
  5  6  1  0  0  0  0
  6  7  1  0  0  0  0
  7  8  1  0  0  0  0
  8  9  1  0  0  0  0
  8 10  1  0  0  0  0
  8 11  2  0  0  0  0
  5 12  1  0  0  0  0
 12 13  1  0  0  0  0
 13 14  1  0  0  0  0
 14 15  1  0  0  0  0
 15 16  1  0  0  0  0
 16 17  1  0  0  0  0
 16 18  2  0  0  0  0
 12 19  2  0  0  0  0
  2 19  1  0  0  0  0
 19 20  1  0  0  0  0
M  END
> <DRUGBANK_ID>
DB02824

> <DRUG_GROUPS>
experimental

> <GENERIC_NAME>
N-Pyridoxyl-Glycine-5-Monophosphate

> <CHEMICAL_FORMULA>
C10H15N2O7P

> <MOLECULAR_WEIGHT>
306.2091

> <EXACT_MASS>
306.061687356

> <IUPAC_NAME>
2-[({3-hydroxy-2-methyl-5-[(phosphonooxy)methyl]pyridin-4-yl}methyl)amino]acetic acid

> <IUPAC_TRADITIONAL_NAME>
[({3-hydroxy-2-methyl-5-[(phosphonooxy)methyl]pyridin-4-yl}methyl)amino]acetic acid

> <INCHI_IDENTIFIER>
InChI=1S/C10H15N2O7P/c1-6-10(15)8(3-11-4-9(13)14)7(2-12-6)5-19-20(16,17)18/h2,11,15H,3-5H2,1H3,(H,13,14)(H2,16,17,18)

> <INCHI_KEY>
InChIKey=FEVQWBMNLWUBTF-UHFFFAOYSA-N

> <SMILES>
CC1=NC=C(COP(O)(O)=O)C(CNCC(O)=O)=C1O

> <JCHEM_ACCEPTOR_COUNT>
8

> <JCHEM_DONOR_COUNT>
5

> <JCHEM_ACIDIC_PKA>
0.99

> <JCHEM_BASIC_PKA>
9.79

> <JCHEM_PHYSIOLOGICAL_CHARGE>
-2

> <ALOGPS_LOGP>
-2.3

> <JCHEM_LOGP>
-4.9

> <ALOGPS_LOGS>
-2.2

> <JCHEM_POLARIZABILITY>
27.09

> <JCHEM_POLAR_SURFACE_AREA>
149.21

> <JCHEM_REFRACTIVITY>
67.49

> <JCHEM_ROTATABLE_BOND_COUNT>
7

> <ALOGPS_SOLUBILITY>
1.97e+00 g/l __ 

$$$$
