
  Mrv0541 02231216342D          

 16 15  0  0  1  0            999 V2000
    9.9513    1.6204    0.0000 C   0  0  0  0  0  0  0  0  0  0  0  0
    9.2368    2.0329    0.0000 C   0  0  1  0  0  0  0  0  0  0  0  0
    8.5224    1.6204    0.0000 N   0  0  0  0  0  0  0  0  0  0  0  0
    9.2368    2.8579    0.0000 C   0  0  2  0  0  0  0  0  0  0  0  0
    8.5224    3.2704    0.0000 C   0  0  0  0  0  0  0  0  0  0  0  0
    7.8079    2.8579    0.0000 C   0  0  0  0  0  0  0  0  0  0  0  0
    7.0934    3.2704    0.0000 C   0  0  0  0  0  0  0  0  0  0  0  0
    6.3789    2.8579    0.0000 C   0  0  0  0  0  0  0  0  0  0  0  0
    5.6645    3.2704    0.0000 C   0  0  0  0  0  0  0  0  0  0  0  0
    4.9500    2.8579    0.0000 C   0  0  0  0  0  0  0  0  0  0  0  0
    4.2355    3.2704    0.0000 O   0  0  0  0  0  0  0  0  0  0  0  0
    4.9500    2.0329    0.0000 O   0  0  0  0  0  0  0  0  0  0  0  0
    9.9513    3.2704    0.0000 C   0  0  0  0  0  0  0  0  0  0  0  0
   10.6658    2.8579    0.0000 C   0  0  0  0  0  0  0  0  0  0  0  0
   11.3802    3.2704    0.0000 O   0  0  0  0  0  0  0  0  0  0  0  0
   10.6658    2.0329    0.0000 O   0  0  0  0  0  0  0  0  0  0  0  0
  1  2  1  0  0  0  0
  2  3  1  1  0  0  0
  2  4  1  0  0  0  0
  4  5  1  0  0  0  0
  5  6  1  0  0  0  0
  6  7  1  0  0  0  0
  7  8  1  0  0  0  0
  8  9  1  0  0  0  0
  9 10  1  0  0  0  0
 10 11  1  0  0  0  0
 10 12  2  0  0  0  0
  4 13  1  6  0  0  0
 13 14  1  0  0  0  0
 14 15  1  0  0  0  0
 14 16  2  0  0  0  0
M  END
> <DRUGBANK_ID>
DB02941

> <DRUG_GROUPS>
experimental

> <GENERIC_NAME>
3-(1-Aminoethyl)Nonanedioic Acid

> <CHEMICAL_FORMULA>
C11H21NO4

> <MOLECULAR_WEIGHT>
231.2887

> <EXACT_MASS>
231.147058165

> <IUPAC_NAME>
(3R)-3-[(1R)-1-aminoethyl]nonanedioic acid

> <IUPAC_TRADITIONAL_NAME>
(3R)-3-[(1R)-1-aminoethyl]nonanedioic acid

> <INCHI_IDENTIFIER>
InChI=1S/C11H21NO4/c1-8(12)9(7-11(15)16)5-3-2-4-6-10(13)14/h8-9H,2-7,12H2,1H3,(H,13,14)(H,15,16)/t8-,9-/m1/s1

> <INCHI_KEY>
InChIKey=NHQUUILSXUJSSP-RKDXNWHRSA-N

> <SMILES>
C[C@@H](N)[C@H](CCCCCC(O)=O)CC(O)=O

> <JCHEM_ACCEPTOR_COUNT>
5

> <JCHEM_DONOR_COUNT>
3

> <JCHEM_ACIDIC_PKA>
3.98

> <JCHEM_BASIC_PKA>
10.46

> <JCHEM_PHYSIOLOGICAL_CHARGE>
-1

> <ALOGPS_LOGP>
-2

> <JCHEM_LOGP>
-1.5

> <ALOGPS_LOGS>
-2.3

> <JCHEM_POLARIZABILITY>
25.19

> <JCHEM_POLAR_SURFACE_AREA>
100.62

> <JCHEM_REFRACTIVITY>
59.02

> <JCHEM_ROTATABLE_BOND_COUNT>
9

> <ALOGPS_SOLUBILITY>
1.27e+00 g/l __ 

$$$$
