
  Mrv0541 02231216012D          

 43 50  0  0  1  0            999 V2000
   -4.1230    0.6903    0.0000 C    0  0  0  0  0  0  0  0  0  0  0  0
   -3.3490    0.9760    0.0000 C    0  0  0  0  0  0  0  0  0  0  0  0
   -2.7146    0.4486    0.0000 C    0  0  0  0  0  0  0  0  0  0  0  0
   -2.7684   -0.3746    0.0000 C    0  0  0  0  0  0  0  0  0  0  0  0
   -3.4660   -0.8150    0.0000 C    0  0  0  0  0  0  0  0  0  0  0  0
   -2.0020   -0.6802    0.0000 C    0  0  0  0  0  0  0  0  0  0  0  0
   -1.4746   -0.0457    0.0000 N    0  3  0  0  0  0  0  0  0  0  0  0
   -1.9151    0.6519    0.0000 C    0  0  0  0  0  0  0  0  0  0  0  0
   -1.3945    1.5893    0.0000 C    0  0  0  0  0  0  0  0  0  0  0  0
   -0.6802    2.0020    0.0000 C    0  0  0  0  0  0  0  0  0  0  0  0
   -0.3746    2.7684    0.0000 C    0  0  0  0  0  0  0  0  0  0  0  0
   -0.8150    3.4660    0.0000 C    0  0  0  0  0  0  0  0  0  0  0  0
    0.4486    2.7146    0.0000 C    0  0  0  0  0  0  0  0  0  0  0  0
    0.9760    3.3490    0.0000 C    0  0  0  0  0  0  0  0  0  0  0  0
    1.7891    3.2095    0.0000 C    0  0  0  0  0  0  0  0  0  0  0  0
    0.6519    1.9151    0.0000 C    0  0  0  0  0  0  0  0  0  0  0  0
    1.5893    1.3945    0.0000 C    0  0  0  0  0  0  0  0  0  0  0  0
    2.0020    0.6802    0.0000 C    0  0  0  0  0  0  0  0  0  0  0  0
    2.7684    0.3746    0.0000 C    0  0  0  0  0  0  0  0  0  0  0  0
    3.4660    0.8150    0.0000 C    0  0  0  0  0  0  0  0  0  0  0  0
    2.7146   -0.4486    0.0000 C    0  0  0  0  0  0  0  0  0  0  0  0
    3.3490   -0.9760    0.0000 C    0  0  0  0  0  0  0  0  0  0  0  0
    4.1230   -0.6903    0.0000 C    0  0  0  0  0  0  0  0  0  0  0  0
    4.7574   -1.2176    0.0000 C    0  0  0  0  0  0  0  0  0  0  0  0
    5.5313   -0.9319    0.0000 O    0  0  0  0  0  0  0  0  0  0  0  0
    4.6179   -2.0308    0.0000 O    0  0  0  0  0  0  0  0  0  0  0  0
    1.9151   -0.6519    0.0000 C    0  0  0  0  0  0  0  0  0  0  0  0
    1.4746    0.0457    0.0000 N    0  3  0  0  0  0  0  0  0  0  0  0
    0.0000    0.0000    0.0000 Fe   0  0  2  0  0  0  0  0  0  0  0  0
    0.0457   -1.4746    0.0000 N    0  0  0  0  0  0  0  0  0  0  0  0
   -0.6519   -1.9151    0.0000 C    0  0  0  0  0  0  0  0  0  0  0  0
   -1.5893   -1.3945    0.0000 C    0  0  0  0  0  0  0  0  0  0  0  0
   -0.4486   -2.7146    0.0000 C    0  0  0  0  0  0  0  0  0  0  0  0
   -0.9760   -3.3490    0.0000 C    0  0  0  0  0  0  0  0  0  0  0  0
    0.3746   -2.7684    0.0000 C    0  0  0  0  0  0  0  0  0  0  0  0
    0.8150   -3.4660    0.0000 C    0  0  0  0  0  0  0  0  0  0  0  0
    1.6394   -3.4334    0.0000 C    0  0  0  0  0  0  0  0  0  0  0  0
    2.0233   -2.7032    0.0000 C    0  0  0  0  0  0  0  0  0  0  0  0
    1.5829   -2.0056    0.0000 O    0  0  0  0  0  0  0  0  0  0  0  0
    2.8477   -2.6706    0.0000 O    0  0  0  0  0  0  0  0  0  0  0  0
    0.6802   -2.0020    0.0000 C    0  0  0  0  0  0  0  0  0  0  0  0
    1.3945   -1.5893    0.0000 C    0  0  0  0  0  0  0  0  0  0  0  0
   -0.0457    1.4746    0.0000 N    0  0  0  0  0  0  0  0  0  0  0  0
  1  2  1  0  0  0  0
  2  3  1  0  0  0  0
  3  4  2  0  0  0  0
  4  5  1  0  0  0  0
  4  6  1  0  0  0  0
  6  7  2  0  0  0  0
  7  8  1  0  0  0  0
  3  8  1  0  0  0  0
  8  9  2  0  0  0  0
  9 10  1  0  0  0  0
 10 11  2  0  0  0  0
 11 12  1  0  0  0  0
 11 13  1  0  0  0  0
 13 14  1  0  0  0  0
 14 15  2  0  0  0  0
 13 16  2  0  0  0  0
 16 17  1  0  0  0  0
 17 18  2  0  0  0  0
 18 19  1  0  0  0  0
 19 20  1  0  0  0  0
 19 21  2  0  0  0  0
 21 22  1  0  0  0  0
 22 23  1  0  0  0  0
 23 24  1  0  0  0  0
 24 25  1  0  0  0  0
 24 26  2  0  0  0  0
 21 27  1  0  0  0  0
 27 28  2  0  0  0  0
 18 28  1  0  0  0  0
 29 28  1  6  0  0  0
  7 29  1  0  0  0  0
 29 30  1  0  0  0  0
 30 31  1  0  0  0  0
 31 32  2  0  0  0  0
  6 32  1  0  0  0  0
 31 33  1  0  0  0  0
 33 34  1  0  0  0  0
 33 35  2  0  0  0  0
 35 36  1  0  0  0  0
 36 37  1  0  0  0  0
 37 38  1  0  0  0  0
 38 39  1  0  0  0  0
 38 40  2  0  0  0  0
 35 41  1  0  0  0  0
 30 41  1  0  0  0  0
 41 42  2  0  0  0  0
 27 42  1  0  0  0  0
 29 43  1  0  0  0  0
 10 43  1  0  0  0  0
 16 43  1  0  0  0  0
M  END
> <DRUGBANK_ID>
DB02182

> <DRUG_GROUPS>
experimental

> <GENERIC_NAME>
Hybrid Between B and C Type Hemes (Protoporphyrin Ixcontaining Fe)

> <CHEMICAL_FORMULA>
C34H34FeN4O4

> <MOLECULAR_WEIGHT>
618.503

> <EXACT_MASS>
618.192947729

> <IUPAC_NAME>
(1R)-4,20-bis(2-carboxyethyl)-9-ethenyl-14-ethyl-5,10,15,19-tetramethyl-2$l^{5},22,23$l^{5},25-tetraaza-1-ferraoctacyclo[11.9.1.1^{1,8}.1^{3,21}.0^{2,6}.0^{16,23}.0^{18,22}.0^{11,25}]pentacosa-2,4,6,8,10,12,14,16(23),17,19,21(24)-undecaene-2,23-bis(ylium)

> <IUPAC_TRADITIONAL_NAME>
(1R)-4,20-bis(2-carboxyethyl)-9-ethenyl-14-ethyl-5,10,15,19-tetramethyl-2$l^{5},22,23$l^{5},25-tetraaza-1-ferraoctacyclo[11.9.1.1^{1,8}.1^{3,21}.0^{2,6}.0^{16,23}.0^{18,22}.0^{11,25}]pentacosa-2,4,6,8,10,12,14,16(23),17,19,21(24)-undecaene-2,23-bis(ylium)

> <INCHI_IDENTIFIER>
InChI=1S/C34H36N4O4.Fe/c1-7-21-17(3)25-13-26-19(5)23(9-11-33(39)40)31(37-26)16-32-24(10-12-34(41)42)20(6)28(38-32)15-30-22(8-2)18(4)27(36-30)14-29(21)35-25;/h8,13-16H,2,7,9-12H2,1,3-6H3,(H4,35,36,37,38,39,40,41,42);/q;+4/p-2/b25-13-,26-13-,27-14-,28-15-,29-14-,30-15-,31-16-,32-16-;

> <INCHI_KEY>
InChIKey=NQJHVSISPZOPNZ-RGGAHWMASA-L

> <SMILES>
CCC1=C(C)C2=[N+]3C1=CC1=C(C)C(C=C)=C4C=C5C(C)=C(CCC(O)=O)C6=[N+]5[Fe@@]3(N3C(=C2)C(C)=C(CCC(O)=O)C3=C6)N14

> <JCHEM_ACCEPTOR_COUNT>
4

> <JCHEM_DONOR_COUNT>
2

> <JCHEM_ACIDIC_PKA>
3.29

> <JCHEM_PHYSIOLOGICAL_CHARGE>
0

> <ALOGPS_LOGP>
0.19

> <JCHEM_LOGP>
2.15

> <ALOGPS_LOGS>
-5.5

> <JCHEM_POLARIZABILITY>
70.52

> <JCHEM_POLAR_SURFACE_AREA>
92.22

> <JCHEM_REFRACTIVITY>
169.73

> <JCHEM_ROTATABLE_BOND_COUNT>
8

> <ALOGPS_SOLUBILITY>
1.98e-03 g/l __ 

$$$$
