
  Mrv0541 02231216002D          

 25 27  0  0  1  0            999 V2000
   -6.5606    2.1957    0.0000 C   0  0  0  0  0  0  0  0  0  0  0  0
   -5.8461    1.7832    0.0000 C   0  0  0  0  0  0  0  0  0  0  0  0
   -5.1317    2.1957    0.0000 N   0  0  0  0  0  0  0  0  0  0  0  0
   -4.4172    1.7832    0.0000 S   0  0  0  0  0  0  0  0  0  0  0  0
   -4.8297    1.0687    0.0000 O   0  0  0  0  0  0  0  0  0  0  0  0
   -4.0047    2.4976    0.0000 O   0  0  0  0  0  0  0  0  0  0  0  0
   -3.7027    1.3707    0.0000 O   0  0  0  0  0  0  0  0  0  0  0  0
   -2.9883    1.7832    0.0000 C   0  0  0  0  0  0  0  0  0  0  0  0
   -2.2738    1.3707    0.0000 C   0  0  2  0  0  0  0  0  0  0  0  0
   -1.5201    1.7062    0.0000 O   0  0  0  0  0  0  0  0  0  0  0  0
   -0.9681    1.0931    0.0000 C   0  0  2  0  0  0  0  0  0  0  0  0
   -1.3806    0.3787    0.0000 C   0  0  2  0  0  0  0  0  0  0  0  0
   -1.0450   -0.3750    0.0000 O   0  0  0  0  0  0  0  0  0  0  0  0
   -2.1876    0.5502    0.0000 C   0  0  1  0  0  0  0  0  0  0  0  0
   -2.8007   -0.0019    0.0000 O   0  0  0  0  0  0  0  0  0  0  0  0
   -0.1476    1.1794    0.0000 N   0  0  0  0  0  0  0  0  0  0  0  0
    0.4044    0.5663    0.0000 C   0  0  0  0  0  0  0  0  0  0  0  0
    1.1581    0.9018    0.0000 N   0  0  0  0  0  0  0  0  0  0  0  0
    1.0719    1.7223    0.0000 C   0  0  0  0  0  0  0  0  0  0  0  0
    0.2649    1.8938    0.0000 C   0  0  0  0  0  0  0  0  0  0  0  0
    0.0100    2.6785    0.0000 N   0  0  0  0  0  0  0  0  0  0  0  0
    0.5620    3.2915    0.0000 C   0  0  0  0  0  0  0  0  0  0  0  0
    1.3690    3.1200    0.0000 N   0  0  0  0  0  0  0  0  0  0  0  0
    1.6239    2.3354    0.0000 C   0  0  0  0  0  0  0  0  0  0  0  0
    2.4309    2.1639    0.0000 N   0  0  0  0  0  0  0  0  0  0  0  0
  1  2  1  0  0  0  0
  2  3  1  0  0  0  0
  3  4  1  0  0  0  0
  4  5  2  0  0  0  0
  4  6  2  0  0  0  0
  4  7  1  0  0  0  0
  7  8  1  0  0  0  0
  9  8  1  6  0  0  0
  9 10  1  0  0  0  0
 10 11  1  0  0  0  0
 11 12  1  0  0  0  0
 12 13  1  6  0  0  0
 12 14  1  0  0  0  0
  9 14  1  0  0  0  0
 14 15  1  1  0  0  0
 11 16  1  1  0  0  0
 16 17  1  0  0  0  0
 17 18  2  0  0  0  0
 18 19  1  0  0  0  0
 19 20  2  0  0  0  0
 16 20  1  0  0  0  0
 20 21  1  0  0  0  0
 21 22  2  0  0  0  0
 22 23  1  0  0  0  0
 23 24  2  0  0  0  0
 19 24  1  0  0  0  0
 24 25  1  0  0  0  0
M  END
> <DRUGBANK_ID>
DB02162

> <DRUG_GROUPS>
experimental

> <GENERIC_NAME>
5'-O-(N-Ethyl-Sulfamoyl)Adenosine

> <CHEMICAL_FORMULA>
C12H18N6O6S

> <MOLECULAR_WEIGHT>
374.373

> <EXACT_MASS>
374.100853028

> <IUPAC_NAME>
[(2S,3R,4R,5R)-5-(6-amino-9H-purin-9-yl)-3,4-dihydroxyoxolan-2-yl]methyl N-ethylsulfamate

> <IUPAC_TRADITIONAL_NAME>
[(2S,3R,4R,5R)-5-(6-aminopurin-9-yl)-3,4-dihydroxyoxolan-2-yl]methyl N-ethylsulfamate

> <INCHI_IDENTIFIER>
InChI=1S/C12H18N6O6S/c1-2-17-25(21,22)23-3-6-8(19)9(20)12(24-6)18-5-16-7-10(13)14-4-15-11(7)18/h4-6,8-9,12,17,19-20H,2-3H2,1H3,(H2,13,14,15)/t6-,8-,9+,12+/m0/s1

> <INCHI_KEY>
InChIKey=ONCSLXAPOGUODU-FNQQPIMXSA-N

> <SMILES>
CCNS(=O)(=O)OC[C@@H]1O[C@H]([C@H](O)[C@H]1O)N1C=NC2=C1N=CN=C2N

> <JCHEM_ACCEPTOR_COUNT>
10

> <JCHEM_DONOR_COUNT>
4

> <JCHEM_ACIDIC_PKA>
11.74

> <JCHEM_BASIC_PKA>
4.99

> <JCHEM_PHYSIOLOGICAL_CHARGE>
0

> <ALOGPS_LOGP>
-1.3

> <JCHEM_LOGP>
-2

> <ALOGPS_LOGS>
-1.9

> <JCHEM_POLARIZABILITY>
35.13

> <JCHEM_POLAR_SURFACE_AREA>
174.71

> <JCHEM_REFRACTIVITY>
84.37

> <JCHEM_ROTATABLE_BOND_COUNT>
5

> <ALOGPS_SOLUBILITY>
5.29e+00 g/l __ 

$$$$
