
  Mrv0541 02231216252D          

  9  8  0  0  0  0            999 V2000
   -0.1914   -0.7145    0.0000 O   0  0  0  0  0  0  0  0  0  0  0  0
    0.5230   -1.1270    0.0000 C   0  0  0  0  0  0  0  0  0  0  0  0
    0.5230   -1.9520    0.0000 O   0  0  0  0  0  0  0  0  0  0  0  0
    1.2375   -0.7145    0.0000 C   0  0  0  0  0  0  0  0  0  0  0  0
    1.9520   -1.1270    0.0000 O   0  0  0  0  0  0  0  0  0  0  0  0
    2.6664   -0.7145    0.0000 P   0  0  0  0  0  0  0  0  0  0  0  0
    3.3809   -0.3020    0.0000 O   0  0  0  0  0  0  0  0  0  0  0  0
    3.0789   -1.4289    0.0000 O   0  0  0  0  0  0  0  0  0  0  0  0
    2.2539    0.0000    0.0000 O   0  0  0  0  0  0  0  0  0  0  0  0
  1  2  1  0  0  0  0
  2  3  2  0  0  0  0
  2  4  1  0  0  0  0
  4  5  1  0  0  0  0
  5  6  1  0  0  0  0
  6  7  1  0  0  0  0
  6  8  1  0  0  0  0
  6  9  2  0  0  0  0
M  END
> <DRUGBANK_ID>
DB02726

> <DRUG_GROUPS>
experimental

> <GENERIC_NAME>
2-Phosphoglycolic Acid

> <CHEMICAL_FORMULA>
C2H5O6P

> <MOLECULAR_WEIGHT>
156.0313

> <EXACT_MASS>
155.982374404

> <IUPAC_NAME>
2-(phosphonooxy)acetic acid

> <IUPAC_TRADITIONAL_NAME>
phosphoglycolic acid

> <INCHI_IDENTIFIER>
InChI=1S/C2H5O6P/c3-2(4)1-8-9(5,6)7/h1H2,(H,3,4)(H2,5,6,7)

> <INCHI_KEY>
InChIKey=ASCFNMCAHFUBCO-UHFFFAOYSA-N

> <SMILES>
OC(=O)COP(O)(O)=O

> <JCHEM_ACCEPTOR_COUNT>
5

> <JCHEM_DONOR_COUNT>
3

> <JCHEM_ACIDIC_PKA>
1.14

> <JCHEM_PHYSIOLOGICAL_CHARGE>
-3

> <ALOGPS_LOGP>
-2.3

> <JCHEM_LOGP>
-1.2

> <ALOGPS_LOGS>
-0.93

> <JCHEM_POLARIZABILITY>
10.67

> <JCHEM_POLAR_SURFACE_AREA>
104.06

> <JCHEM_REFRACTIVITY>
25.22

> <JCHEM_ROTATABLE_BOND_COUNT>
3

> <ALOGPS_SOLUBILITY>
1.84e+01 g/l __ 

$$$$
