
  Mrv0541 02231216362D          

 17 16  0  0  0  0            999 V2000
    2.0921    6.9829    0.0000 C   0  0  0  0  0  0  0  0  0  0  0  0
    2.8066    6.5704    0.0000 C   0  0  0  0  0  0  0  0  0  0  0  0
    2.8066    5.7454    0.0000 C   0  0  0  0  0  0  0  0  0  0  0  0
    3.5211    5.3329    0.0000 C   0  0  0  0  0  0  0  0  0  0  0  0
    3.5211    4.5079    0.0000 C   0  0  0  0  0  0  0  0  0  0  0  0
    4.2355    4.0954    0.0000 C   0  0  0  0  0  0  0  0  0  0  0  0
    4.2355    3.2704    0.0000 C   0  0  0  0  0  0  0  0  0  0  0  0
    4.9500    2.8579    0.0000 C   0  0  0  0  0  0  0  0  0  0  0  0
    5.6645    3.2704    0.0000 C   0  0  0  0  0  0  0  0  0  0  0  0
    6.3789    2.8579    0.0000 C   0  0  0  0  0  0  0  0  0  0  0  0
    7.0934    3.2704    0.0000 C   0  0  0  0  0  0  0  0  0  0  0  0
    7.8079    2.8579    0.0000 C   0  0  0  0  0  0  0  0  0  0  0  0
    8.5224    3.2704    0.0000 C   0  0  0  0  0  0  0  0  0  0  0  0
    9.2368    2.8579    0.0000 C   0  0  0  0  0  0  0  0  0  0  0  0
    9.9513    3.2704    0.0000 C   0  0  0  0  0  0  0  0  0  0  0  0
   10.6658    2.8579    0.0000 C   0  0  0  0  0  0  0  0  0  0  0  0
   11.3802    3.2704    0.0000 O   0  0  0  0  0  0  0  0  0  0  0  0
  1  2  1  0  0  0  0
  2  3  1  0  0  0  0
  3  4  1  0  0  0  0
  4  5  2  0  0  0  0
  5  6  1  0  0  0  0
  6  7  2  0  0  0  0
  7  8  1  0  0  0  0
  8  9  1  0  0  0  0
  9 10  1  0  0  0  0
 10 11  1  0  0  0  0
 11 12  1  0  0  0  0
 12 13  1  0  0  0  0
 13 14  1  0  0  0  0
 14 15  1  0  0  0  0
 15 16  1  0  0  0  0
 16 17  1  0  0  0  0
M  END
> <DRUGBANK_ID>
DB02982

> <DRUG_GROUPS>
experimental

> <GENERIC_NAME>
Bombykol

> <CHEMICAL_FORMULA>
C16H30O

> <MOLECULAR_WEIGHT>
238.4088

> <EXACT_MASS>
238.229665582

> <IUPAC_NAME>
(10E,12E)-hexadeca-10,12-dien-1-ol

> <IUPAC_TRADITIONAL_NAME>
bombykol

> <INCHI_IDENTIFIER>
InChI=1S/C16H30O/c1-2-3-4-5-6-7-8-9-10-11-12-13-14-15-16-17/h4-7,17H,2-3,8-16H2,1H3/b5-4+,7-6+

> <INCHI_KEY>
InChIKey=CIVIWCVVOFNUST-YTXTXJHMSA-N

> <SMILES>
CCC\C=C\C=C\CCCCCCCCCO

> <JCHEM_ACCEPTOR_COUNT>
1

> <JCHEM_DONOR_COUNT>
1

> <JCHEM_ACIDIC_PKA>
16.84

> <JCHEM_BASIC_PKA>
-2

> <JCHEM_PHYSIOLOGICAL_CHARGE>
0

> <ALOGPS_LOGP>
6.38

> <JCHEM_LOGP>
5.42

> <ALOGPS_LOGS>
-6

> <JCHEM_POLARIZABILITY>
33

> <JCHEM_POLAR_SURFACE_AREA>
20.23

> <JCHEM_REFRACTIVITY>
79.58

> <JCHEM_ROTATABLE_BOND_COUNT>
12

> <ALOGPS_SOLUBILITY>
2.10e-04 g/l __ 

$$$$
