
  Mrv0541 02231216122D          

  9  8  0  0  1  0            999 V2000
    1.9520    1.9520    0.0000 N    0  0  0  0  0  0  0  0  0  0  0  0
    1.9520    1.1270    0.0000 C    0  0  1  0  0  0  0  0  0  0  0  0
    1.2375    0.7145    0.0000 C    0  0  0  0  0  0  0  0  0  0  0  0
    0.5230    1.1270    0.0000 Se   0  0  0  0  0  0  0  0  0  0  0  0
   -0.1914    0.7145    0.0000 O    0  0  0  0  0  0  0  0  0  0  0  0
    0.5230    1.9520    0.0000 O    0  0  0  0  0  0  0  0  0  0  0  0
    2.6664    0.7145    0.0000 C    0  0  0  0  0  0  0  0  0  0  0  0
    3.3809    1.1270    0.0000 O    0  0  0  0  0  0  0  0  0  0  0  0
    2.6664   -0.1105    0.0000 O    0  0  0  0  0  0  0  0  0  0  0  0
  2  1  1  6  0  0  0
  2  3  1  0  0  0  0
  3  4  1  0  0  0  0
  4  5  2  0  0  0  0
  4  6  2  0  0  0  0
  2  7  1  0  0  0  0
  7  8  1  0  0  0  0
  7  9  2  0  0  0  0
M  END
> <DRUGBANK_ID>
DB02442

> <DRUG_GROUPS>
experimental

> <GENERIC_NAME>
Dioxyselenocysteine

> <CHEMICAL_FORMULA>
C3H6NO4Se

> <MOLECULAR_WEIGHT>
199.04

> <EXACT_MASS>
199.946204513

> <IUPAC_NAME>
[(2R)-2-amino-2-carboxyethane]selenonyl

> <IUPAC_TRADITIONAL_NAME>
(2R)-2-amino-2-carboxyethaneselenonyl

> <INCHI_IDENTIFIER>
InChI=1S/C3H6NO4Se/c4-2(3(5)6)1-9(7)8/h2H,1,4H2,(H,5,6)/t2-/m0/s1

> <INCHI_KEY>
InChIKey=CFDIKEIPXZDMLP-REOHCLBHSA-N

> <SMILES>
N[C@@H](C[Se](=O)=O)C(O)=O

> <JCHEM_ACCEPTOR_COUNT>
5

> <JCHEM_DONOR_COUNT>
2

> <JCHEM_ACIDIC_PKA>
1.05

> <JCHEM_BASIC_PKA>
7.72

> <JCHEM_PHYSIOLOGICAL_CHARGE>
0

> <ALOGPS_LOGP>
-3.2

> <JCHEM_LOGP>
-4.4

> <ALOGPS_LOGS>
0.03

> <JCHEM_POLARIZABILITY>
12.47

> <JCHEM_POLAR_SURFACE_AREA>
97.46

> <JCHEM_REFRACTIVITY>
35.23

> <JCHEM_ROTATABLE_BOND_COUNT>
3

> <ALOGPS_SOLUBILITY>
2.15e+02 g/l __ 

$$$$
