CLT
  Mrv0541 02231215532D          

 12 12  0  0  0  0            999 V2000
    1.4968    0.4655    0.0000 C   0  0  0  0  0  0  0  0  0  0  0  0
    0.7823    0.0530    0.0000 C   0  0  0  0  0  0  0  0  0  0  0  0
    0.0678    0.4655    0.0000 C   0  0  0  0  0  0  0  0  0  0  0  0
   -0.6467    0.0530    0.0000 C   0  0  0  0  0  0  0  0  0  0  0  0
   -0.6467   -0.7720    0.0000 C   0  0  0  0  0  0  0  0  0  0  0  0
   -1.3611    0.4655    0.0000 C   0  0  0  0  0  0  0  0  0  0  0  0
   -1.3611   -1.1845    0.0000 C   0  0  0  0  0  0  0  0  0  0  0  0
   -2.0756    0.0530    0.0000 C   0  0  0  0  0  0  0  0  0  0  0  0
   -2.0756   -0.7720    0.0000 C   0  0  0  0  0  0  0  0  0  0  0  0
    2.2112    0.0530    0.0000 C   0  0  0  0  0  0  0  0  0  0  0  0
    2.9257    0.4655    0.0000 O   0  0  0  0  0  0  0  0  0  0  0  0
    2.2112   -0.7720    0.0000 O   0  0  0  0  0  0  0  0  0  0  0  0
  1  2  1  0  0  0  0
  1 10  1  0  0  0  0
  2  3  1  0  0  0  0
  3  4  1  0  0  0  0
  4  5  2  0  0  0  0
  4  6  1  0  0  0  0
  5  7  1  0  0  0  0
  6  8  2  0  0  0  0
  7  9  2  0  0  0  0
  8  9  1  0  0  0  0
 10 11  2  0  0  0  0
 10 12  1  0  0  0  0
M  END
> <DRUGBANK_ID>
DB02000

> <DRUG_GROUPS>
experimental

> <GENERIC_NAME>
Gamma-Phenyl-Butyric Acid

> <CHEMICAL_FORMULA>
C10H12O2

> <MOLECULAR_WEIGHT>
164.2011

> <EXACT_MASS>
164.083729628

> <IUPAC_NAME>
4-phenylbutanoic acid

> <IUPAC_TRADITIONAL_NAME>
gamma-phenyl-butyric acid

> <INCHI_IDENTIFIER>
InChI=1S/C10H12O2/c11-10(12)8-4-7-9-5-2-1-3-6-9/h1-3,5-6H,4,7-8H2,(H,11,12)

> <INCHI_KEY>
InChIKey=OBKXEAXTFZPCHS-UHFFFAOYSA-N

> <SMILES>
OC(=O)CCCC1=CC=CC=C1

> <JCHEM_ACCEPTOR_COUNT>
2

> <JCHEM_DONOR_COUNT>
1

> <JCHEM_ACIDIC_PKA>
4.81

> <JCHEM_PHYSIOLOGICAL_CHARGE>
-1

> <ALOGPS_LOGP>
2.29

> <JCHEM_LOGP>
2.5

> <ALOGPS_LOGS>
-2.5

> <JCHEM_POLARIZABILITY>
17.99

> <JCHEM_POLAR_SURFACE_AREA>
37.3

> <JCHEM_REFRACTIVITY>
46.57

> <JCHEM_ROTATABLE_BOND_COUNT>
4

> <ALOGPS_SOLUBILITY>
5.13e-01 g/l __ 

$$$$
