
  Mrv0541 02231216072D          

 41 45  0  0  1  0            999 V2000
    6.8522    1.4091    0.0000 C   0  0  0  0  0  0  0  0  0  0  0  0
    6.0770    1.1270    0.0000 C   0  0  0  0  0  0  0  0  0  0  0  0
    5.9337    1.9394    0.0000 C   0  0  0  0  0  0  0  0  0  0  0  0
    6.4895    0.4125    0.0000 C   0  0  1  0  0  0  0  0  0  0  0  0
    6.0770   -0.3020    0.0000 C   0  0  0  0  0  0  0  0  0  0  0  0
    5.2520   -0.3020    0.0000 C   0  0  0  0  0  0  0  0  0  0  0  0
    4.8395    0.4125    0.0000 C   0  0  2  0  0  0  0  0  0  0  0  0
    4.4270   -0.3020    0.0000 C   0  0  0  0  0  0  0  0  0  0  0  0
    5.2520    1.1270    0.0000 C   0  0  2  0  0  0  0  0  0  0  0  0
    4.8395    1.8414    0.0000 C   0  0  0  0  0  0  0  0  0  0  0  0
    4.0145    1.8414    0.0000 C   0  0  0  0  0  0  0  0  0  0  0  0
    3.6020    1.1270    0.0000 C   0  0  2  0  0  0  0  0  0  0  0  0
    3.1895    1.8414    0.0000 C   0  0  0  0  0  0  0  0  0  0  0  0
    4.0145    0.4125    0.0000 C   0  0  1  0  0  0  0  0  0  0  0  0
    3.6020   -0.3020    0.0000 C   0  0  0  0  0  0  0  0  0  0  0  0
    4.0145   -1.0164    0.0000 O   0  0  0  0  0  0  0  0  0  0  0  0
    2.7770   -0.3020    0.0000 C   0  0  0  0  0  0  0  0  0  0  0  0
    2.3645    0.4125    0.0000 C   0  0  0  0  0  0  0  0  0  0  0  0
    1.5395    0.4125    0.0000 C   0  0  2  0  0  0  0  0  0  0  0  0
    1.1270   -0.3020    0.0000 C   0  0  0  0  0  0  0  0  0  0  0  0
    0.3020   -0.3020    0.0000 C   0  0  1  0  0  0  0  0  0  0  0  0
    0.4452   -1.1144    0.0000 C   0  0  0  0  0  0  0  0  0  0  0  0
   -0.1105    0.4125    0.0000 C   0  0  0  0  0  0  0  0  0  0  0  0
    0.3020    1.1270    0.0000 C   0  0  0  0  0  0  0  0  0  0  0  0
    1.1270    1.1270    0.0000 C   0  0  2  0  0  0  0  0  0  0  0  0
    0.7145    1.8414    0.0000 C   0  0  0  0  0  0  0  0  0  0  0  0
    1.5395    1.8414    0.0000 C   0  0  0  0  0  0  0  0  0  0  0  0
    2.3645    1.8414    0.0000 C   0  0  0  0  0  0  0  0  0  0  0  0
    2.7770    1.1270    0.0000 C   0  0  1  0  0  0  0  0  0  0  0  0
    2.6907    1.9475    0.0000 C   0  0  0  0  0  0  0  0  0  0  0  0
   -0.4733   -0.5841    0.0000 C   0  0  0  0  0  0  0  0  0  0  0  0
   -0.6165   -1.3966    0.0000 O   0  0  0  0  0  0  0  0  0  0  0  0
   -1.1053   -0.0538    0.0000 O   0  0  0  0  0  0  0  0  0  0  0  0
    7.3145    0.4125    0.0000 O   0  0  0  0  0  0  0  0  0  0  0  0
    7.7270    1.1270    0.0000 C   0  0  0  0  0  0  0  0  0  0  0  0
    7.3145    1.8414    0.0000 O   0  0  0  0  0  0  0  0  0  0  0  0
    8.5520    1.1270    0.0000 C   0  0  0  0  0  0  0  0  0  0  0  0
    8.9645    1.8414    0.0000 C   0  0  0  0  0  0  0  0  0  0  0  0
    9.7895    1.8414    0.0000 C   0  0  0  0  0  0  0  0  0  0  0  0
   10.2020    2.5559    0.0000 O   0  0  0  0  0  0  0  0  0  0  0  0
   10.2020    1.1270    0.0000 O   0  0  0  0  0  0  0  0  0  0  0  0
  1  2  1  0  0  0  0
  2  3  1  0  0  0  0
  2  4  1  0  0  0  0
  4  5  1  0  0  0  0
  5  6  1  0  0  0  0
  6  7  1  0  0  0  0
  7  8  1  6  0  0  0
  7  9  1  0  0  0  0
  9  2  1  6  0  0  0
  9 10  1  0  0  0  0
 10 11  1  0  0  0  0
 11 12  1  0  0  0  0
 12 13  1  1  0  0  0
 12 14  1  0  0  0  0
  7 14  1  0  0  0  0
 14 15  1  6  0  0  0
 15 16  2  0  0  0  0
 15 17  1  0  0  0  0
 17 18  2  0  0  0  0
 19 18  1  6  0  0  0
 19 20  1  0  0  0  0
 20 21  1  0  0  0  0
 21 22  1  1  0  0  0
 21 23  1  0  0  0  0
 23 24  1  0  0  0  0
 24 25  1  0  0  0  0
 19 25  1  0  0  0  0
 25 26  1  6  0  0  0
 25 27  1  0  0  0  0
 27 28  1  0  0  0  0
 28 29  1  0  0  0  0
 12 29  1  0  0  0  0
 18 29  1  0  0  0  0
 29 30  1  6  0  0  0
 21 31  1  6  0  0  0
 31 32  1  0  0  0  0
 31 33  2  0  0  0  0
  4 34  1  6  0  0  0
 34 35  1  0  0  0  0
 35 36  2  0  0  0  0
 35 37  1  0  0  0  0
 37 38  1  0  0  0  0
 38 39  1  0  0  0  0
 39 40  1  0  0  0  0
 39 41  2  0  0  0  0
M  END
> <DRUGBANK_ID>
DB02329

> <DRUG_GROUPS>
experimental

> <GENERIC_NAME>
Carbenoxolone

> <CHEMICAL_FORMULA>
C34H50O7

> <MOLECULAR_WEIGHT>
570.7566

> <EXACT_MASS>
570.355653954

> <IUPAC_NAME>
(2R,4aR,6aS,6bR,8aS,10R,12aR,12bS,14bR)-10-[(3-carboxypropanoyl)oxy]-2,4a,6a,6b,9,9,12a-heptamethyl-13-oxo-1,2,3,4,4a,5,6,6a,6b,7,8,8a,9,10,11,12,12a,12b,13,14b-icosahydropicene-2-carboxylic acid

> <IUPAC_TRADITIONAL_NAME>
carbenoxolone

> <INCHI_IDENTIFIER>
InChI=1S/C34H50O7/c1-29(2)23-10-13-34(7)27(32(23,5)12-11-24(29)41-26(38)9-8-25(36)37)22(35)18-20-21-19-31(4,28(39)40)15-14-30(21,3)16-17-33(20,34)6/h18,21,23-24,27H,8-17,19H2,1-7H3,(H,36,37)(H,39,40)/t21-,23+,24+,27-,30-,31+,32+,33+,34+/m0/s1

> <INCHI_KEY>
InChIKey=OBZHEBDUNPOCJG-SZTGPWMUSA-N

> <SMILES>
CC1(C)[C@@H](CC[C@]2(C)[C@@H]1CC[C@]1(C)[C@H]2C(=O)C=C2[C@@H]3C[C@@](C)(CC[C@@]3(C)CC[C@@]12C)C(O)=O)OC(=O)CCC(O)=O

> <JCHEM_ACCEPTOR_COUNT>
6

> <JCHEM_DONOR_COUNT>
2

> <JCHEM_ACIDIC_PKA>
4.04

> <JCHEM_BASIC_PKA>
-5.1

> <JCHEM_PHYSIOLOGICAL_CHARGE>
-2

> <ALOGPS_LOGP>
5.46

> <JCHEM_LOGP>
6.3

> <ALOGPS_LOGS>
-5.9

> <JCHEM_POLARIZABILITY>
65.29

> <JCHEM_POLAR_SURFACE_AREA>
117.97

> <JCHEM_REFRACTIVITY>
154.31

> <JCHEM_ROTATABLE_BOND_COUNT>
6

> <ALOGPS_SOLUBILITY>
7.38e-04 g/l __ 

$$$$
