
  Mrv0541 02231216192D          

  5  4  0  0  1  0            999 V2000
    0.8250    1.4289    0.0000 C   0  0  0  0  0  0  0  0  0  0  0  0
    1.2375    0.7145    0.0000 C   0  0  0  0  0  0  0  0  0  0  0  0
    0.8250    0.0000    0.0000 C   0  0  1  0  0  0  0  0  0  0  0  0
    1.2375   -0.7145    0.0000 C   0  0  0  0  0  0  0  0  0  0  0  0
    0.0000    0.0000    0.0000 O   0  0  0  0  0  0  0  0  0  0  0  0
  1  2  1  0  0  0  0
  2  3  1  0  0  0  0
  3  4  1  0  0  0  0
  3  5  1  1  0  0  0
M  END
> <DRUGBANK_ID>
DB02606

> <DRUG_GROUPS>
experimental

> <GENERIC_NAME>
2-Butanol

> <CHEMICAL_FORMULA>
C4H10O

> <MOLECULAR_WEIGHT>
74.1216

> <EXACT_MASS>
74.073164942

> <IUPAC_NAME>
(2R)-butan-2-ol

> <IUPAC_TRADITIONAL_NAME>
2-butanol

> <INCHI_IDENTIFIER>
InChI=1S/C4H10O/c1-3-4(2)5/h4-5H,3H2,1-2H3/t4-/m1/s1

> <INCHI_KEY>
InChIKey=BTANRVKWQNVYAZ-SCSAIBSYSA-N

> <SMILES>
CC[C@@H](C)O

> <JCHEM_ACCEPTOR_COUNT>
1

> <JCHEM_DONOR_COUNT>
1

> <JCHEM_ACIDIC_PKA>
17.69

> <JCHEM_BASIC_PKA>
-1.6

> <JCHEM_PHYSIOLOGICAL_CHARGE>
0

> <ALOGPS_LOGP>
0.66

> <JCHEM_LOGP>
0.78

> <ALOGPS_LOGS>
0.42

> <JCHEM_POLARIZABILITY>
9.03

> <JCHEM_POLAR_SURFACE_AREA>
20.23

> <JCHEM_REFRACTIVITY>
21.95

> <JCHEM_ROTATABLE_BOND_COUNT>
1

> <ALOGPS_SOLUBILITY>
1.95e+02 g/l __ 

$$$$
