
  Mrv0541 02231216132D          

 13 13  0  0  0  0            999 V2000
    1.4289   -2.4750    0.0000 N   0  0  0  0  0  0  0  0  0  0  0  0
    1.4289   -1.6500    0.0000 C   0  0  0  0  0  0  0  0  0  0  0  0
    2.1434   -1.2375    0.0000 N   0  0  0  0  0  0  0  0  0  0  0  0
    0.7145   -1.2375    0.0000 N   0  0  0  0  0  0  0  0  0  0  0  0
    0.7145   -0.4125    0.0000 C   0  0  0  0  0  0  0  0  0  0  0  0
    0.0000    0.0000    0.0000 C   0  0  0  0  0  0  0  0  0  0  0  0
    0.0000    0.8250    0.0000 C   0  0  0  0  0  0  0  0  0  0  0  0
    0.7145    1.2375    0.0000 C   0  0  0  0  0  0  0  0  0  0  0  0
    1.4289    0.8250    0.0000 C   0  0  0  0  0  0  0  0  0  0  0  0
    1.4289    0.0000    0.0000 C   0  0  0  0  0  0  0  0  0  0  0  0
    0.7145    2.0625    0.0000 C   0  0  0  0  0  0  0  0  0  0  0  0
    0.0000    2.4750    0.0000 O   0  0  0  0  0  0  0  0  0  0  0  0
    1.4289    2.4750    0.0000 O   0  0  0  0  0  0  0  0  0  0  0  0
  1  2  1  0  0  0  0
  2  3  2  0  0  0  0
  2  4  1  0  0  0  0
  4  5  1  0  0  0  0
  5  6  2  0  0  0  0
  6  7  1  0  0  0  0
  7  8  2  0  0  0  0
  8  9  1  0  0  0  0
  9 10  2  0  0  0  0
  5 10  1  0  0  0  0
  8 11  1  0  0  0  0
 11 12  1  0  0  0  0
 11 13  2  0  0  0  0
M  END
> <DRUGBANK_ID>
DB02459

> <DRUG_GROUPS>
experimental

> <GENERIC_NAME>
4-Guanidinobenzoic Acid

> <CHEMICAL_FORMULA>
C8H9N3O2

> <MOLECULAR_WEIGHT>
179.176

> <EXACT_MASS>
179.069476547

> <IUPAC_NAME>
4-carbamimidamidobenzoic acid

> <IUPAC_TRADITIONAL_NAME>
4-guanidinobenzoic acid

> <INCHI_IDENTIFIER>
InChI=1S/C8H9N3O2/c9-8(10)11-6-3-1-5(2-4-6)7(12)13/h1-4H,(H,12,13)(H4,9,10,11)

> <INCHI_KEY>
InChIKey=SXTSBZBQQRIYCU-UHFFFAOYSA-N

> <SMILES>
NC(=N)NC1=CC=C(C=C1)C(O)=O

> <JCHEM_ACCEPTOR_COUNT>
5

> <JCHEM_DONOR_COUNT>
4

> <JCHEM_ACIDIC_PKA>
4.02

> <JCHEM_BASIC_PKA>
10.26

> <JCHEM_PHYSIOLOGICAL_CHARGE>
0

> <ALOGPS_LOGP>
-0.34

> <JCHEM_LOGP>
-1

> <ALOGPS_LOGS>
-2.3

> <JCHEM_POLARIZABILITY>
17.62

> <JCHEM_POLAR_SURFACE_AREA>
99.2

> <JCHEM_REFRACTIVITY>
59.45

> <JCHEM_ROTATABLE_BOND_COUNT>
2

> <ALOGPS_SOLUBILITY>
9.20e-01 g/l __ 

$$$$
