
  Mrv0541 02231216212D          

  6  5  0  0  0  0            999 V2000
    1.6500   -1.4289    0.0000 Cl   0  0  0  0  0  0  0  0  0  0  0  0
    1.2375   -0.7145    0.0000 C    0  0  0  0  0  0  0  0  0  0  0  0
    1.9520   -0.3020    0.0000 Cl   0  0  0  0  0  0  0  0  0  0  0  0
    0.5230   -1.1270    0.0000 Cl   0  0  0  0  0  0  0  0  0  0  0  0
    0.8250    0.0000    0.0000 C    0  0  0  0  0  0  0  0  0  0  0  0
    0.0000    0.0000    0.0000 O    0  0  0  0  0  0  0  0  0  0  0  0
  1  2  1  0  0  0  0
  2  3  1  0  0  0  0
  2  4  1  0  0  0  0
  2  5  1  0  0  0  0
  5  6  2  0  0  0  0
M  END
> <DRUGBANK_ID>
DB02650

> <DRUG_GROUPS>
experimental

> <GENERIC_NAME>
Tri-Chloro-Acetaldehyde

> <CHEMICAL_FORMULA>
C2HCl3O

> <MOLECULAR_WEIGHT>
147.388

> <EXACT_MASS>
145.909297775

> <IUPAC_NAME>
2,2,2-trichloroacetaldehyde

> <IUPAC_TRADITIONAL_NAME>
tri-chloro-acetaldehyde

> <INCHI_IDENTIFIER>
InChI=1S/C2HCl3O/c3-2(4,5)1-6/h1H

> <INCHI_KEY>
InChIKey=HFFLGKNGCAIQMO-UHFFFAOYSA-N

> <SMILES>
ClC(Cl)(Cl)C=O

> <JCHEM_ACCEPTOR_COUNT>
1

> <JCHEM_DONOR_COUNT>
0

> <JCHEM_BASIC_PKA>
-8

> <JCHEM_PHYSIOLOGICAL_CHARGE>
0

> <ALOGPS_LOGP>
1.38

> <JCHEM_LOGP>
1.37

> <ALOGPS_LOGS>
-1.7

> <JCHEM_POLARIZABILITY>
10.43

> <JCHEM_POLAR_SURFACE_AREA>
17.07

> <JCHEM_REFRACTIVITY>
27.23

> <JCHEM_ROTATABLE_BOND_COUNT>
1

> <ALOGPS_SOLUBILITY>
3.15e+00 g/l __ 

$$$$
