
  Mrv0541 02231216002D          

  9  8  0  0  1  0            999 V2000
    1.9520    1.9520    0.0000 N   0  0  0  0  0  0  0  0  0  0  0  0
    1.9520    1.1270    0.0000 C   0  0  1  0  0  0  0  0  0  0  0  0
    1.2375    0.7145    0.0000 C   0  0  0  0  0  0  0  0  0  0  0  0
    0.5230    1.1270    0.0000 S   0  0  1  0  0  0  0  0  0  0  0  0
   -0.1914    0.7145    0.0000 O   0  0  0  0  0  0  0  0  0  0  0  0
    0.5230    1.9520    0.0000 O   0  0  0  0  0  0  0  0  0  0  0  0
    2.6664    0.7145    0.0000 C   0  0  0  0  0  0  0  0  0  0  0  0
    3.3809    1.1270    0.0000 O   0  0  0  0  0  0  0  0  0  0  0  0
    2.6664   -0.1105    0.0000 O   0  0  0  0  0  0  0  0  0  0  0  0
  2  1  1  6  0  0  0
  2  3  1  0  0  0  0
  3  4  1  0  0  0  0
  4  5  1  1  0  0  0
  4  6  2  0  0  0  0
  2  7  1  0  0  0  0
  7  8  1  0  0  0  0
  7  9  2  0  0  0  0
M  END
> <DRUGBANK_ID>
DB02153

> <DRUG_GROUPS>
experimental

> <GENERIC_NAME>
3-Sulfinoalanine

> <BRANDS>


> <CHEMICAL_FORMULA>
C3H7NO4S

> <MOLECULAR_WEIGHT>
153.157

> <EXACT_MASS>
153.009578407

> <IUPAC_NAME>
(2R)-2-amino-3-[(R)-sulfino]propanoic acid

> <IUPAC_TRADITIONAL_NAME>
3-sulfinoalanine

> <INCHI_IDENTIFIER>
InChI=1S/C3H7NO4S/c4-2(3(5)6)1-9(7)8/h2H,1,4H2,(H,5,6)(H,7,8)/t2-/m0/s1

> <INCHI_KEY>
InChIKey=ADVPTQAUNPRNPO-REOHCLBHSA-N

> <SMILES>
N[C@@H](C[S@@](O)=O)C(O)=O

> <JCHEM_ACCEPTOR_COUNT>
5

> <JCHEM_DONOR_COUNT>
3

> <JCHEM_ACIDIC_PKA>
-0.78

> <JCHEM_BASIC_PKA>
9.09

> <JCHEM_PHYSIOLOGICAL_CHARGE>
-1

> <ALOGPS_LOGP>
-2.1

> <JCHEM_LOGP>
-3

> <ALOGPS_LOGS>
-0.7

> <JCHEM_POLARIZABILITY>
12.95

> <JCHEM_POLAR_SURFACE_AREA>
100.62

> <JCHEM_REFRACTIVITY>
28.99

> <JCHEM_ROTATABLE_BOND_COUNT>
3

> <ALOGPS_SOLUBILITY>
3.02e+01 g/l __ 

$$$$
