
  Mrv0541 02231216322D          

  9  8  0  0  1  0            999 V2000
   -1.6204    0.7145    0.0000 S   0  0  0  0  0  0  0  0  0  0  0  0
   -0.9059    1.1270    0.0000 C   0  0  0  0  0  0  0  0  0  0  0  0
   -0.1914    0.7145    0.0000 C   0  0  0  0  0  0  0  0  0  0  0  0
    0.5230    1.1270    0.0000 C   0  0  0  0  0  0  0  0  0  0  0  0
    1.2375    0.7145    0.0000 S   0  0  2  0  0  0  0  0  0  0  0  0
    1.2375   -0.1105    0.0000 O   0  0  0  0  0  0  0  0  0  0  0  0
    1.9520    1.1270    0.0000 C   0  0  0  0  0  0  0  0  0  0  0  0
    2.6664    0.7145    0.0000 C   0  0  0  0  0  0  0  0  0  0  0  0
    3.3809    1.1270    0.0000 C   0  0  0  0  0  0  0  0  0  0  0  0
  1  2  1  0  0  0  0
  2  3  2  0  0  0  0
  3  4  1  0  0  0  0
  4  5  1  0  0  0  0
  5  6  2  0  0  0  0
  5  7  1  1  0  0  0
  7  8  1  0  0  0  0
  8  9  2  0  0  0  0
M  END
> <DRUGBANK_ID>
DB02895

> <DRUG_GROUPS>
experimental

> <GENERIC_NAME>
3-(Prop-2-Ene-1-Sulfinyl)-Propene-1-Thiol

> <CHEMICAL_FORMULA>
C6H10OS2

> <MOLECULAR_WEIGHT>
162.273

> <EXACT_MASS>
162.017306322

> <IUPAC_NAME>
(1E)-3-[(R)-prop-2-ene-1-sulfinyl]prop-1-ene-1-thiol

> <IUPAC_TRADITIONAL_NAME>
(1E)-3-[(R)-prop-2-ene-1-sulfinyl]prop-1-ene-1-thiol

> <INCHI_IDENTIFIER>
InChI=1S/C6H10OS2/c1-2-5-9(7)6-3-4-8/h2-4,8H,1,5-6H2/b4-3+/t9-/m1/s1

> <INCHI_KEY>
InChIKey=HSVQDVSVQIMRSS-CDAZIORVSA-N

> <SMILES>
S\C=C\C[S@](=O)CC=C

> <JCHEM_ACCEPTOR_COUNT>
1

> <JCHEM_DONOR_COUNT>
1

> <JCHEM_ACIDIC_PKA>
8.36

> <JCHEM_BASIC_PKA>
-6.6

> <JCHEM_PHYSIOLOGICAL_CHARGE>
0

> <ALOGPS_LOGP>
2.02

> <JCHEM_LOGP>
0.21

> <ALOGPS_LOGS>
-1.5

> <JCHEM_POLARIZABILITY>
17.72

> <JCHEM_POLAR_SURFACE_AREA>
17.07

> <JCHEM_REFRACTIVITY>
47.19

> <JCHEM_ROTATABLE_BOND_COUNT>
4

> <ALOGPS_SOLUBILITY>
5.26e+00 g/l __ 

$$$$
