
  Mrv0541 02231216312D          

 41 45  0  0  1  0            999 V2000
    0.1927    1.6910    0.0000 C    0  0  0  0  0  0  0  0  0  0  0  0
   -0.2922    1.0235    0.0000 C    0  0  0  0  0  0  0  0  0  0  0  0
    0.0434    0.2699    0.0000 O    0  0  0  0  0  0  0  0  0  0  0  0
    0.8638    0.1836    0.0000 C    0  0  0  0  0  0  0  0  0  0  0  0
    1.3488    0.8511    0.0000 C    0  0  0  0  0  0  0  0  0  0  0  0
    2.1692    0.7648    0.0000 C    0  0  0  0  0  0  0  0  0  0  0  0
    2.6542    1.4323    0.0000 O    0  0  0  0  0  0  0  0  0  0  0  0
    3.4746    1.3460    0.0000 C    0  0  0  0  0  0  0  0  0  0  0  0
    2.5048    0.0111    0.0000 C    0  0  0  0  0  0  0  0  0  0  0  0
    2.0199   -0.6563    0.0000 C    0  0  0  0  0  0  0  0  0  0  0  0
    1.1994   -0.5701    0.0000 C    0  0  0  0  0  0  0  0  0  0  0  0
    0.7145   -1.2375    0.0000 C    0  0  0  0  0  0  0  0  0  0  0  0
    1.3819   -1.7224    0.0000 N    0  0  0  0  0  0  0  0  0  0  0  0
    1.1270   -2.5070    0.0000 C    0  0  1  0  0  0  0  0  0  0  0  0
    0.3020   -2.5070    0.0000 C    0  0  2  0  0  0  0  0  0  0  0  0
    0.0470   -1.7224    0.0000 N    0  0  0  0  0  0  0  0  0  0  0  0
   -0.7376   -1.4675    0.0000 C    0  0  0  0  0  0  0  0  0  0  0  0
   -1.3507   -2.0195    0.0000 O    0  0  0  0  0  0  0  0  0  0  0  0
   -0.9091   -0.6605    0.0000 N    0  0  0  0  0  0  0  0  0  0  0  0
   -1.6937   -0.4056    0.0000 C    0  0  0  0  0  0  0  0  0  0  0  0
   -1.8653    0.4014    0.0000 C    0  0  0  0  0  0  0  0  0  0  0  0
   -1.2522    0.9534    0.0000 N    0  0  0  0  0  0  0  0  0  0  0  0
   -1.4237    1.7604    0.0000 C    0  0  0  0  0  0  0  0  0  0  0  0
   -0.8106    2.3124    0.0000 C    0  0  0  0  0  0  0  0  0  0  0  0
   -0.9821    3.1194    0.0000 O    0  0  0  0  0  0  0  0  0  0  0  0
   -0.4675    0.6985    0.0000 C    0  0  0  0  0  0  0  0  0  0  0  0
   -0.2960   -0.1085    0.0000 C    0  0  0  0  0  0  0  0  0  0  0  0
   -0.1830   -3.1745    0.0000 C    0  0  0  0  0  0  0  0  0  0  0  0
    0.1526   -3.9282    0.0000 C    0  0  0  0  0  0  0  0  0  0  0  0
   -0.3323   -4.5956    0.0000 C    0  0  0  0  0  0  0  0  0  0  0  0
   -1.1528   -4.5094    0.0000 C    0  0  0  0  0  0  0  0  0  0  0  0
   -1.6377   -5.1768    0.0000 Br   0  0  0  0  0  0  0  0  0  0  0  0
   -1.4884   -3.7557    0.0000 C    0  0  0  0  0  0  0  0  0  0  0  0
   -1.0034   -3.0882    0.0000 C    0  0  0  0  0  0  0  0  0  0  0  0
    1.6119   -3.1745    0.0000 C    0  0  0  0  0  0  0  0  0  0  0  0
    2.4324   -3.0882    0.0000 C    0  0  0  0  0  0  0  0  0  0  0  0
    2.9173   -3.7557    0.0000 C    0  0  0  0  0  0  0  0  0  0  0  0
    2.5817   -4.5094    0.0000 C    0  0  0  0  0  0  0  0  0  0  0  0
    3.0667   -5.1768    0.0000 Br   0  0  0  0  0  0  0  0  0  0  0  0
    1.7613   -4.5956    0.0000 C    0  0  0  0  0  0  0  0  0  0  0  0
    1.2763   -3.9282    0.0000 C    0  0  0  0  0  0  0  0  0  0  0  0
  1  2  1  0  0  0  0
  2  3  1  0  0  0  0
  3  4  1  0  0  0  0
  4  5  2  0  0  0  0
  5  6  1  0  0  0  0
  6  7  1  0  0  0  0
  7  8  1  0  0  0  0
  6  9  2  0  0  0  0
  9 10  1  0  0  0  0
 10 11  2  0  0  0  0
  4 11  1  0  0  0  0
 11 12  1  0  0  0  0
 12 13  2  0  0  0  0
 13 14  1  0  0  0  0
 14 15  1  0  0  0  0
 15 16  1  0  0  0  0
 12 16  1  0  0  0  0
 16 17  1  0  0  0  0
 17 18  2  0  0  0  0
 17 19  1  0  0  0  0
 19 20  1  0  0  0  0
 20 21  1  0  0  0  0
 21 22  1  0  0  0  0
 22 23  1  0  0  0  0
 23 24  1  0  0  0  0
 24 25  1  0  0  0  0
 22 26  1  0  0  0  0
 26 27  1  0  0  0  0
 19 27  1  0  0  0  0
 15 28  1  1  0  0  0
 28 29  2  0  0  0  0
 29 30  1  0  0  0  0
 30 31  2  0  0  0  0
 31 32  1  0  0  0  0
 31 33  1  0  0  0  0
 33 34  2  0  0  0  0
 28 34  1  0  0  0  0
 14 35  1  6  0  0  0
 35 36  2  0  0  0  0
 36 37  1  0  0  0  0
 37 38  2  0  0  0  0
 38 39  1  0  0  0  0
 38 40  1  0  0  0  0
 40 41  2  0  0  0  0
 35 41  1  0  0  0  0
M  END
> <DRUGBANK_ID>
DB02872

> <DRUG_GROUPS>
experimental

> <GENERIC_NAME>
Cis-[4,5-Bis-(4-Bromophenyl)-2-(2-Ethoxy-4-Methoxyphenyl)-4,5-Dihydroimidazol-1-Yl]-[4-(2-Hydroxyethyl)Piperazin-1-Yl]Methanone

> <CHEMICAL_FORMULA>
C31H34Br2N4O4

> <MOLECULAR_WEIGHT>
686.434

> <EXACT_MASS>
684.09468089

> <IUPAC_NAME>
2-(4-{[(4R,5R)-4,5-bis(4-bromophenyl)-2-(2-ethoxy-4-methoxyphenyl)-4,5-dihydro-1H-imidazol-1-yl]carbonyl}piperazin-1-yl)ethan-1-ol

> <IUPAC_TRADITIONAL_NAME>
2-(4-{[(4R,5R)-4,5-bis(4-bromophenyl)-2-(2-ethoxy-4-methoxyphenyl)-4,5-dihydroimidazol-1-yl]carbonyl}piperazin-1-yl)ethanol

> <INCHI_IDENTIFIER>
InChI=1S/C31H34Br2N4O4/c1-3-41-27-20-25(40-2)12-13-26(27)30-34-28(21-4-8-23(32)9-5-21)29(22-6-10-24(33)11-7-22)37(30)31(39)36-16-14-35(15-17-36)18-19-38/h4-13,20,28-29,38H,3,14-19H2,1-2H3/t28-,29-/m1/s1

> <INCHI_KEY>
InChIKey=PVRYEWOXWGDQHA-FQLXRVMXSA-N

> <SMILES>
CCOC1=CC(OC)=CC=C1C1=N[C@@H]([C@H](N1C(=O)N1CCN(CCO)CC1)C1=CC=C(Br)C=C1)C1=CC=C(Br)C=C1

> <JCHEM_ACCEPTOR_COUNT>
6

> <JCHEM_DONOR_COUNT>
1

> <JCHEM_ACIDIC_PKA>
15.59

> <JCHEM_BASIC_PKA>
6.77

> <JCHEM_PHYSIOLOGICAL_CHARGE>
0

> <ALOGPS_LOGP>
5.06

> <JCHEM_LOGP>
5.52

> <ALOGPS_LOGS>
-5.1

> <JCHEM_POLARIZABILITY>
65.93

> <JCHEM_POLAR_SURFACE_AREA>
77.84

> <JCHEM_REFRACTIVITY>
166.88

> <JCHEM_ROTATABLE_BOND_COUNT>
8

> <ALOGPS_SOLUBILITY>
5.47e-03 g/l __ 

$$$$
