
  Mrv0541 02231216282D          

 23 25  0  0  1  0            999 V2000
   -0.1857    5.0560    0.0000 C   0  0  0  0  0  0  0  0  0  0  0  0
   -0.4406    4.2713    0.0000 P   0  0  1  0  0  0  0  0  0  0  0  0
   -1.2252    4.5263    0.0000 O   0  0  0  0  0  0  0  0  0  0  0  0
    0.3440    4.0164    0.0000 O   0  0  0  0  0  0  0  0  0  0  0  0
   -0.6955    3.4867    0.0000 O   0  0  0  0  0  0  0  0  0  0  0  0
   -0.1435    2.8736    0.0000 C   0  0  0  0  0  0  0  0  0  0  0  0
   -0.3984    2.0890    0.0000 C   0  0  2  0  0  0  0  0  0  0  0  0
    0.0865    1.4216    0.0000 O   0  0  0  0  0  0  0  0  0  0  0  0
   -0.3984    0.7541    0.0000 C   0  0  2  0  0  0  0  0  0  0  0  0
   -1.1831    1.0091    0.0000 C   0  0  2  0  0  0  0  0  0  0  0  0
   -1.8505    0.5241    0.0000 O   0  0  0  0  0  0  0  0  0  0  0  0
   -1.1831    1.8341    0.0000 C   0  0  1  0  0  0  0  0  0  0  0  0
   -1.8505    2.3190    0.0000 O   0  0  0  0  0  0  0  0  0  0  0  0
   -0.1435   -0.0305    0.0000 N   0  0  0  0  0  0  0  0  0  0  0  0
   -0.6284   -0.6979    0.0000 C   0  0  0  0  0  0  0  0  0  0  0  0
   -0.1435   -1.3654    0.0000 N   0  0  0  0  0  0  0  0  0  0  0  0
    0.6411   -1.1104    0.0000 C   0  0  0  0  0  0  0  0  0  0  0  0
    0.6411   -0.2854    0.0000 C   0  0  0  0  0  0  0  0  0  0  0  0
    1.3556    0.1271    0.0000 N   0  0  0  0  0  0  0  0  0  0  0  0
    2.0701   -0.2854    0.0000 C   0  0  0  0  0  0  0  0  0  0  0  0
    2.0701   -1.1104    0.0000 N   0  0  0  0  0  0  0  0  0  0  0  0
    1.3556   -1.5229    0.0000 C   0  0  0  0  0  0  0  0  0  0  0  0
    1.3556   -2.3479    0.0000 N   0  0  0  0  0  0  0  0  0  0  0  0
  2  1  1  1  0  0  0
  2  3  1  6  0  0  0
  2  4  2  0  0  0  0
  2  5  1  0  0  0  0
  5  6  1  0  0  0  0
  7  6  1  6  0  0  0
  7  8  1  0  0  0  0
  8  9  1  0  0  0  0
  9 10  1  0  0  0  0
 10 11  1  6  0  0  0
 10 12  1  0  0  0  0
  7 12  1  0  0  0  0
 12 13  1  1  0  0  0
  9 14  1  1  0  0  0
 14 15  1  0  0  0  0
 15 16  2  0  0  0  0
 16 17  1  0  0  0  0
 17 18  2  0  0  0  0
 14 18  1  0  0  0  0
 18 19  1  0  0  0  0
 19 20  2  0  0  0  0
 20 21  1  0  0  0  0
 21 22  2  0  0  0  0
 17 22  1  0  0  0  0
 22 23  1  0  0  0  0
M  END
> <DRUGBANK_ID>
DB02798

> <DRUG_GROUPS>
experimental

> <GENERIC_NAME>
Alpha-Methylene Adenosine Monophosphate

> <CHEMICAL_FORMULA>
C11H16N5O6P

> <MOLECULAR_WEIGHT>
345.2484

> <EXACT_MASS>
345.083819781

> <IUPAC_NAME>
{[(2S,3R,4R,5R)-5-(6-amino-9H-purin-9-yl)-3,4-dihydroxyoxolan-2-yl]methoxy}(methyl)phosphinic acid

> <IUPAC_TRADITIONAL_NAME>
[(2S,3R,4R,5R)-5-(6-aminopurin-9-yl)-3,4-dihydroxyoxolan-2-yl]methoxy(methyl)phosphinic acid

> <INCHI_IDENTIFIER>
InChI=1S/C11H16N5O6P/c1-23(19,20)21-2-5-7(17)8(18)11(22-5)16-4-15-6-9(12)13-3-14-10(6)16/h3-5,7-8,11,17-18H,2H2,1H3,(H,19,20)(H2,12,13,14)/t5-,7-,8+,11+/m0/s1

> <INCHI_KEY>
InChIKey=PXSSQXBLDTZHLF-WOIOKPISSA-N

> <SMILES>
C[P@@](O)(=O)OC[C@@H]1O[C@H]([C@H](O)[C@H]1O)N1C=NC2=C1N=CN=C2N

> <JCHEM_ACCEPTOR_COUNT>
9

> <JCHEM_DONOR_COUNT>
4

> <JCHEM_ACIDIC_PKA>
1.41

> <JCHEM_BASIC_PKA>
4.99

> <JCHEM_PHYSIOLOGICAL_CHARGE>
-1

> <ALOGPS_LOGP>
-2.9

> <JCHEM_LOGP>
-4.9

> <ALOGPS_LOGS>
-2

> <JCHEM_POLARIZABILITY>
30.96

> <JCHEM_POLAR_SURFACE_AREA>
165.84

> <JCHEM_REFRACTIVITY>
76.59

> <JCHEM_ROTATABLE_BOND_COUNT>
4

> <ALOGPS_SOLUBILITY>
3.16e+00 g/l __ 

$$$$
