
  Mrv0541 02231216262D          

 13 13  0  0  0  0            999 V2000
    2.1434    2.0625    0.0000 O   0  0  0  0  0  0  0  0  0  0  0  0
    2.1434    1.2375    0.0000 C   0  0  0  0  0  0  0  0  0  0  0  0
    2.8579    0.8250    0.0000 O   0  0  0  0  0  0  0  0  0  0  0  0
    1.4289    0.8250    0.0000 C   0  0  0  0  0  0  0  0  0  0  0  0
    1.4289    0.0000    0.0000 C   0  0  0  0  0  0  0  0  0  0  0  0
    0.7145   -0.4125    0.0000 C   0  0  0  0  0  0  0  0  0  0  0  0
    0.7145   -1.2375    0.0000 S   0  0  0  0  0  0  0  0  0  0  0  0
    0.0000    0.0000    0.0000 C   0  0  0  0  0  0  0  0  0  0  0  0
    0.0000    0.8250    0.0000 C   0  0  0  0  0  0  0  0  0  0  0  0
    0.7145    1.2375    0.0000 C   0  0  0  0  0  0  0  0  0  0  0  0
    0.7145    2.0625    0.0000 N   0  3  0  0  0  0  0  0  0  0  0  0
    0.0000    2.4750    0.0000 O   0  5  0  0  0  0  0  0  0  0  0  0
    1.4289    2.4750    0.0000 O   0  0  0  0  0  0  0  0  0  0  0  0
  1  2  1  0  0  0  0
  2  3  2  0  0  0  0
  2  4  1  0  0  0  0
  4  5  2  0  0  0  0
  5  6  1  0  0  0  0
  6  7  1  0  0  0  0
  6  8  2  0  0  0  0
  8  9  1  0  0  0  0
  9 10  2  0  0  0  0
  4 10  1  0  0  0  0
 10 11  1  0  0  0  0
 11 12  1  0  0  0  0
 11 13  2  0  0  0  0
M  END
> <DRUGBANK_ID>
DB02763

> <DRUG_GROUPS>
experimental

> <GENERIC_NAME>
5-Mercapto-2-Nitro-Benzoic Acid

> <CHEMICAL_FORMULA>
C7H5NO4S

> <MOLECULAR_WEIGHT>
199.184

> <EXACT_MASS>
198.993928343

> <IUPAC_NAME>
2-nitro-5-sulfanylbenzoic acid

> <IUPAC_TRADITIONAL_NAME>
2-nitro-5-sulfanylbenzoic acid

> <INCHI_IDENTIFIER>
InChI=1S/C7H5NO4S/c9-7(10)5-3-4(13)1-2-6(5)8(11)12/h1-3,13H,(H,9,10)

> <INCHI_KEY>
InChIKey=GANZODCWZFAEGN-UHFFFAOYSA-N

> <SMILES>
OC(=O)C1=CC(S)=CC=C1[N+]([O-])=O

> <JCHEM_ACCEPTOR_COUNT>
4

> <JCHEM_DONOR_COUNT>
2

> <JCHEM_ACIDIC_PKA>
2.19

> <JCHEM_PHYSIOLOGICAL_CHARGE>
-2

> <ALOGPS_LOGP>
2.16

> <JCHEM_LOGP>
1.66

> <ALOGPS_LOGS>
-3.2

> <JCHEM_POLARIZABILITY>
17.38

> <JCHEM_POLAR_SURFACE_AREA>
83.12

> <JCHEM_REFRACTIVITY>
48.65

> <JCHEM_ROTATABLE_BOND_COUNT>
2

> <ALOGPS_SOLUBILITY>
1.16e-01 g/l __ 

$$$$
