
  Mrv0541 02231216142D          

 43 45  0  0  1  0            999 V2000
    0.5269  -12.9225    0.0000 C   0  0  0  0  0  0  0  0  0  0  0  0
   -0.0862  -12.3705    0.0000 C   0  0  0  0  0  0  0  0  0  0  0  0
   -0.8932  -12.5420    0.0000 N   0  0  0  0  0  0  0  0  0  0  0  0
   -1.3057  -11.8275    0.0000 C   0  0  0  0  0  0  0  0  0  0  0  0
   -0.7537  -11.2144    0.0000 C   0  0  0  0  0  0  0  0  0  0  0  0
    0.0000  -11.5500    0.0000 N   0  0  0  0  0  0  0  0  0  0  0  0
    0.7145  -11.1375    0.0000 C   0  0  0  0  0  0  0  0  0  0  0  0
    0.7145  -10.3125    0.0000 C   0  0  0  0  0  0  0  0  0  0  0  0
    1.4289   -9.9000    0.0000 C   0  0  0  0  0  0  0  0  0  0  0  0
    1.4289   -9.0750    0.0000 C   0  0  0  0  0  0  0  0  0  0  0  0
    2.1434   -8.6625    0.0000 C   0  0  0  0  0  0  0  0  0  0  0  0
    2.1434   -7.8375    0.0000 C   0  0  0  0  0  0  0  0  0  0  0  0
    2.8579   -7.4250    0.0000 C   0  0  0  0  0  0  0  0  0  0  0  0
    3.5724   -7.8375    0.0000 C   0  0  0  0  0  0  0  0  0  0  0  0
    4.2868   -7.4250    0.0000 C   0  0  0  0  0  0  0  0  0  0  0  0
    5.0013   -7.8375    0.0000 C   0  0  0  0  0  0  0  0  0  0  0  0
    5.0013   -8.6625    0.0000 O   0  0  0  0  0  0  0  0  0  0  0  0
    5.7158   -7.4250    0.0000 N   0  0  0  0  0  0  0  0  0  0  0  0
    6.4302   -7.8375    0.0000 C   0  0  2  0  0  0  0  0  0  0  0  0
    6.4302   -8.6625    0.0000 C   0  0  0  0  0  0  0  0  0  0  0  0
    7.1447   -9.0750    0.0000 O   0  0  0  0  0  0  0  0  0  0  0  0
    7.1447   -7.4250    0.0000 C   0  0  0  0  0  0  0  0  0  0  0  0
    7.1447   -6.6000    0.0000 O   0  0  0  0  0  0  0  0  0  0  0  0
    7.8592   -7.8375    0.0000 N   0  0  0  0  0  0  0  0  0  0  0  0
    8.5737   -7.4250    0.0000 C   0  0  2  0  0  0  0  0  0  0  0  0
    8.5737   -6.6000    0.0000 C   0  0  0  0  0  0  0  0  0  0  0  0
    7.8592   -6.1875    0.0000 C   0  0  0  0  0  0  0  0  0  0  0  0
    7.8592   -5.3625    0.0000 C   0  0  0  0  0  0  0  0  0  0  0  0
    7.1447   -4.9500    0.0000 C   0  0  0  0  0  0  0  0  0  0  0  0
    7.1447   -4.1250    0.0000 N   0  0  0  0  0  0  0  0  0  0  0  0
    9.2881   -7.8375    0.0000 C   0  0  0  0  0  0  0  0  0  0  0  0
    9.2881   -8.6625    0.0000 O   0  0  0  0  0  0  0  0  0  0  0  0
   10.0026   -7.4250    0.0000 N   0  0  0  0  0  0  0  0  0  0  0  0
   10.7171   -7.8375    0.0000 C   0  0  0  0  0  0  0  0  0  0  0  0
   11.4315   -7.4250    0.0000 C   0  0  0  0  0  0  0  0  0  0  0  0
   12.1460   -7.8375    0.0000 C   0  0  0  0  0  0  0  0  0  0  0  0
   12.8605   -7.4250    0.0000 C   0  0  0  0  0  0  0  0  0  0  0  0
   13.5749   -7.8375    0.0000 C   0  0  0  0  0  0  0  0  0  0  0  0
   13.5749   -8.6625    0.0000 C   0  0  0  0  0  0  0  0  0  0  0  0
   12.8605   -9.0750    0.0000 C   0  0  0  0  0  0  0  0  0  0  0  0
   12.1460   -8.6625    0.0000 C   0  0  0  0  0  0  0  0  0  0  0  0
    3.5724   -8.6625    0.0000 C   0  0  0  0  0  0  0  0  0  0  0  0
    2.8579   -9.0750    0.0000 C   0  0  0  0  0  0  0  0  0  0  0  0
  1  2  1  0  0  0  0
  2  3  2  0  0  0  0
  3  4  1  0  0  0  0
  4  5  2  0  0  0  0
  5  6  1  0  0  0  0
  2  6  1  0  0  0  0
  6  7  1  0  0  0  0
  7  8  1  0  0  0  0
  8  9  1  0  0  0  0
  9 10  1  0  0  0  0
 10 11  1  0  0  0  0
 11 12  2  0  0  0  0
 12 13  1  0  0  0  0
 13 14  2  0  0  0  0
 14 15  1  0  0  0  0
 15 16  1  0  0  0  0
 16 17  2  0  0  0  0
 16 18  1  0  0  0  0
 19 18  1  1  0  0  0
 19 20  1  0  0  0  0
 20 21  1  0  0  0  0
 19 22  1  0  0  0  0
 22 23  2  0  0  0  0
 22 24  1  0  0  0  0
 25 24  1  6  0  0  0
 25 26  1  0  0  0  0
 26 27  1  0  0  0  0
 27 28  1  0  0  0  0
 28 29  1  0  0  0  0
 29 30  1  0  0  0  0
 25 31  1  0  0  0  0
 31 32  2  0  0  0  0
 31 33  1  0  0  0  0
 33 34  1  0  0  0  0
 34 35  1  0  0  0  0
 35 36  1  0  0  0  0
 36 37  1  0  0  0  0
 37 38  1  0  0  0  0
 38 39  1  0  0  0  0
 39 40  1  0  0  0  0
 40 41  1  0  0  0  0
 36 41  1  0  0  0  0
 14 42  1  0  0  0  0
 42 43  2  0  0  0  0
 11 43  1  0  0  0  0
M  END
> <DRUGBANK_ID>
DB02477

> <DRUG_GROUPS>
experimental

> <GENERIC_NAME>
[Cyclohexylethyl]-[[[[4-[2-Methyl-1-Imidazolyl-Butyl]Phenyl]Acetyl]-Seryl]-Lysinyl]-Amine

> <CHEMICAL_FORMULA>
C33H52N6O4

> <MOLECULAR_WEIGHT>
596.8038

> <EXACT_MASS>
596.405004182

> <IUPAC_NAME>
(2R)-6-amino-N-(2-cyclohexylethyl)-2-[(2R)-3-hydroxy-2-(2-{4-[4-(2-methyl-1H-imidazol-1-yl)butyl]phenyl}acetamido)propanamido]hexanamide

> <IUPAC_TRADITIONAL_NAME>
(2R)-6-amino-N-(2-cyclohexylethyl)-2-[(2R)-3-hydroxy-2-(2-{4-[4-(2-methylimidazol-1-yl)butyl]phenyl}acetamido)propanamido]hexanamide

> <INCHI_IDENTIFIER>
InChI=1S/C33H52N6O4/c1-25-35-20-22-39(25)21-8-6-11-27-13-15-28(16-14-27)23-31(41)37-30(24-40)33(43)38-29(12-5-7-18-34)32(42)36-19-17-26-9-3-2-4-10-26/h13-16,20,22,26,29-30,40H,2-12,17-19,21,23-24,34H2,1H3,(H,36,42)(H,37,41)(H,38,43)/t29-,30-/m1/s1

> <INCHI_KEY>
InChIKey=WHLPIOSHBKQGHA-LOYHVIPDSA-N

> <SMILES>
CC1=NC=CN1CCCCC1=CC=C(CC(=O)N[C@H](CO)C(=O)N[C@H](CCCCN)C(=O)NCCC2CCCCC2)C=C1

> <JCHEM_ACCEPTOR_COUNT>
6

> <JCHEM_DONOR_COUNT>
5

> <JCHEM_ACIDIC_PKA>
12.2

> <JCHEM_BASIC_PKA>
10.2

> <JCHEM_PHYSIOLOGICAL_CHARGE>
2

> <ALOGPS_LOGP>
3.59

> <JCHEM_LOGP>
2.39

> <ALOGPS_LOGS>
-5.3

> <JCHEM_POLARIZABILITY>
68.86

> <JCHEM_POLAR_SURFACE_AREA>
151.37

> <JCHEM_REFRACTIVITY>
168.82

> <JCHEM_ROTATABLE_BOND_COUNT>
19

> <ALOGPS_SOLUBILITY>
2.99e-03 g/l __ 

$$$$
