
  Mrv0541 02231216072D          

 12 11  0  0  1  0            999 V2000
    1.7605    1.8414    0.0000 C   0  0  0  0  0  0  0  0  0  0  0  0
    2.4750    1.4289    0.0000 C   0  0  0  0  0  0  0  0  0  0  0  0
    2.4750    0.6039    0.0000 C   0  0  0  0  0  0  0  0  0  0  0  0
    3.1895    1.8414    0.0000 C   0  0  0  0  0  0  0  0  0  0  0  0
    3.9039    1.4289    0.0000 C   0  0  1  0  0  0  0  0  0  0  0  0
    3.9039    0.6039    0.0000 C   0  0  0  0  0  0  0  0  0  0  0  0
    4.6184    0.1914    0.0000 O   0  0  0  0  0  0  0  0  0  0  0  0
    3.1895    0.1914    0.0000 O   0  0  0  0  0  0  0  0  0  0  0  0
    4.6184    1.8414    0.0000 C   0  0  0  0  0  0  0  0  0  0  0  0
    4.6184    2.6664    0.0000 O   0  0  0  0  0  0  0  0  0  0  0  0
    5.3329    1.4289    0.0000 N   0  0  0  0  0  0  0  0  0  0  0  0
    6.0474    1.8414    0.0000 O   0  0  0  0  0  0  0  0  0  0  0  0
  1  2  1  0  0  0  0
  2  3  1  0  0  0  0
  2  4  1  0  0  0  0
  4  5  1  0  0  0  0
  5  6  1  0  0  0  0
  6  7  1  0  0  0  0
  6  8  2  0  0  0  0
  5  9  1  6  0  0  0
  9 10  2  0  0  0  0
  9 11  1  0  0  0  0
 11 12  1  0  0  0  0
M  END
> <DRUGBANK_ID>
DB02326

> <DRUG_GROUPS>
experimental

> <GENERIC_NAME>
1-Hydroxyamine-2-Isobutylmalonic Acid

> <CHEMICAL_FORMULA>
C7H13NO4

> <MOLECULAR_WEIGHT>
175.1824

> <EXACT_MASS>
175.084457909

> <IUPAC_NAME>
(2R)-2-(hydroxycarbamoyl)-4-methylpentanoic acid

> <IUPAC_TRADITIONAL_NAME>
(2R)-2-(hydroxycarbamoyl)-4-methylpentanoic acid

> <INCHI_IDENTIFIER>
InChI=1S/C7H13NO4/c1-4(2)3-5(7(10)11)6(9)8-12/h4-5,12H,3H2,1-2H3,(H,8,9)(H,10,11)/t5-/m1/s1

> <INCHI_KEY>
InChIKey=CINIOMOBGSHXRK-RXMQYKEDSA-N

> <SMILES>
CC(C)C[C@@H](C(O)=O)C(=O)NO

> <JCHEM_ACCEPTOR_COUNT>
4

> <JCHEM_DONOR_COUNT>
3

> <JCHEM_ACIDIC_PKA>
3.99

> <JCHEM_BASIC_PKA>
-5.5

> <JCHEM_PHYSIOLOGICAL_CHARGE>
-1

> <ALOGPS_LOGP>
0.13

> <JCHEM_LOGP>
0.58

> <ALOGPS_LOGS>
-0.89

> <JCHEM_POLARIZABILITY>
16.99

> <JCHEM_POLAR_SURFACE_AREA>
86.63

> <JCHEM_REFRACTIVITY>
40.9

> <JCHEM_ROTATABLE_BOND_COUNT>
4

> <ALOGPS_SOLUBILITY>
2.28e+01 g/l __ 

$$$$
