
  Mrv0541 02231216042D          

 11 11  0  0  0  0            999 V2000
   -0.7145    3.7125    0.0000 O   0  0  0  0  0  0  0  0  0  0  0  0
    0.0000    3.3000    0.0000 C   0  0  0  0  0  0  0  0  0  0  0  0
    0.7145    3.7125    0.0000 O   0  0  0  0  0  0  0  0  0  0  0  0
    0.0000    2.4750    0.0000 C   0  0  0  0  0  0  0  0  0  0  0  0
    0.7145    2.0625    0.0000 C   0  0  0  0  0  0  0  0  0  0  0  0
    0.7145    1.2375    0.0000 C   0  0  0  0  0  0  0  0  0  0  0  0
    1.4289    0.8250    0.0000 C   0  0  0  0  0  0  0  0  0  0  0  0
    1.4289    0.0000    0.0000 C   0  0  0  0  0  0  0  0  0  0  0  0
    0.7145   -0.4125    0.0000 C   0  0  0  0  0  0  0  0  0  0  0  0
    0.0000    0.0000    0.0000 C   0  0  0  0  0  0  0  0  0  0  0  0
    0.0000    0.8250    0.0000 C   0  0  0  0  0  0  0  0  0  0  0  0
  1  2  1  0  0  0  0
  2  3  2  0  0  0  0
  2  4  1  0  0  0  0
  4  5  1  0  0  0  0
  5  6  1  0  0  0  0
  6  7  1  0  0  0  0
  7  8  1  0  0  0  0
  8  9  1  0  0  0  0
  9 10  1  0  0  0  0
 10 11  1  0  0  0  0
  6 11  1  0  0  0  0
M  END
> <DRUGBANK_ID>
DB02242

> <DRUG_GROUPS>
experimental

> <GENERIC_NAME>
Cyclohexane Propionic Acid

> <CHEMICAL_FORMULA>
C9H16O2

> <MOLECULAR_WEIGHT>
156.2221

> <EXACT_MASS>
156.115029756

> <IUPAC_NAME>
3-cyclohexylpropanoic acid

> <IUPAC_TRADITIONAL_NAME>
cyclohexanepropanoic acid

> <INCHI_IDENTIFIER>
InChI=1S/C9H16O2/c10-9(11)7-6-8-4-2-1-3-5-8/h8H,1-7H2,(H,10,11)

> <INCHI_KEY>
InChIKey=HJZLEGIHUQOJBA-UHFFFAOYSA-N

> <SMILES>
OC(=O)CCC1CCCCC1

> <JCHEM_ACCEPTOR_COUNT>
2

> <JCHEM_DONOR_COUNT>
1

> <JCHEM_ACIDIC_PKA>
5

> <JCHEM_PHYSIOLOGICAL_CHARGE>
-1

> <ALOGPS_LOGP>
3.09

> <JCHEM_LOGP>
2.52

> <ALOGPS_LOGS>
-2.5

> <JCHEM_POLARIZABILITY>
18.07

> <JCHEM_POLAR_SURFACE_AREA>
37.3

> <JCHEM_REFRACTIVITY>
43.02

> <JCHEM_ROTATABLE_BOND_COUNT>
3

> <ALOGPS_SOLUBILITY>
5.08e-01 g/l __ 

$$$$
