
  Mrv0541 02231216262D          

 19 21  0  0  1  0            999 V2000
   -0.6955    3.4867    0.0000 O    0  0  0  0  0  0  0  0  0  0  0  0
   -0.1435    2.8736    0.0000 C    0  0  0  0  0  0  0  0  0  0  0  0
   -0.3984    2.0890    0.0000 C    0  0  2  0  0  0  0  0  0  0  0  0
    0.0865    1.4216    0.0000 O    0  0  0  0  0  0  0  0  0  0  0  0
   -0.3984    0.7541    0.0000 C    0  0  2  0  0  0  0  0  0  0  0  0
   -1.1831    1.0091    0.0000 C    0  0  2  0  0  0  0  0  0  0  0  0
   -1.8505    0.5241    0.0000 O    0  0  0  0  0  0  0  0  0  0  0  0
   -1.1831    1.8341    0.0000 C    0  0  1  0  0  0  0  0  0  0  0  0
   -1.8505    2.3190    0.0000 O    0  0  0  0  0  0  0  0  0  0  0  0
   -0.1435   -0.0305    0.0000 N    0  0  0  0  0  0  0  0  0  0  0  0
   -0.6284   -0.6979    0.0000 C    0  0  0  0  0  0  0  0  0  0  0  0
   -0.1435   -1.3654    0.0000 N    0  0  0  0  0  0  0  0  0  0  0  0
    0.6411   -1.1104    0.0000 C    0  0  0  0  0  0  0  0  0  0  0  0
    0.6411   -0.2854    0.0000 C    0  0  0  0  0  0  0  0  0  0  0  0
    1.3556    0.1271    0.0000 N    0  0  0  0  0  0  0  0  0  0  0  0
    2.0701   -0.2854    0.0000 C    0  0  0  0  0  0  0  0  0  0  0  0
    2.0701   -1.1104    0.0000 N    0  0  0  0  0  0  0  0  0  0  0  0
    1.3556   -1.5229    0.0000 C    0  0  0  0  0  0  0  0  0  0  0  0
    1.3556   -2.3479    0.0000 Se   0  0  0  0  0  0  0  0  0  0  0  0
  1  2  1  0  0  0  0
  3  2  1  6  0  0  0
  3  4  1  0  0  0  0
  4  5  1  0  0  0  0
  5  6  1  0  0  0  0
  6  7  1  6  0  0  0
  6  8  1  0  0  0  0
  3  8  1  0  0  0  0
  8  9  1  1  0  0  0
  5 10  1  1  0  0  0
 10 11  1  0  0  0  0
 11 12  2  0  0  0  0
 12 13  1  0  0  0  0
 13 14  2  0  0  0  0
 10 14  1  0  0  0  0
 14 15  1  0  0  0  0
 15 16  2  0  0  0  0
 16 17  1  0  0  0  0
 17 18  1  0  0  0  0
 13 18  1  0  0  0  0
 18 19  2  0  0  0  0
M  END
> <DRUGBANK_ID>
DB02753

> <DRUG_GROUPS>
experimental

> <GENERIC_NAME>
Selenoinosine

> <CHEMICAL_FORMULA>
C10H12N4O4Se

> <MOLECULAR_WEIGHT>
331.19

> <EXACT_MASS>
332.00237672

> <IUPAC_NAME>
9-[(2R,3R,4R,5S)-3,4-dihydroxy-5-(hydroxymethyl)oxolan-2-yl]-6,9-dihydro-1H-purine-6-selone

> <IUPAC_TRADITIONAL_NAME>
selenoinosine

> <INCHI_IDENTIFIER>
InChI=1S/C10H12N4O4Se/c15-1-4-6(16)7(17)10(18-4)14-3-13-5-8(14)11-2-12-9(5)19/h2-4,6-7,10,15-17H,1H2,(H,11,12,19)/t4-,6-,7+,10+/m0/s1

> <INCHI_KEY>
InChIKey=MXLAAGNIPFEHEI-FCIPNVEPSA-N

> <SMILES>
OC[C@@H]1O[C@H]([C@H](O)[C@H]1O)N1C=NC2=C1N=CNC2=[Se]

> <JCHEM_ACCEPTOR_COUNT>
6

> <JCHEM_DONOR_COUNT>
4

> <JCHEM_ACIDIC_PKA>
12.27

> <JCHEM_BASIC_PKA>
1.33

> <JCHEM_PHYSIOLOGICAL_CHARGE>
0

> <ALOGPS_LOGP>
-1.9

> <JCHEM_LOGP>
-2.5

> <ALOGPS_LOGS>
-1

> <JCHEM_POLARIZABILITY>
25.91

> <JCHEM_POLAR_SURFACE_AREA>
112.13

> <JCHEM_REFRACTIVITY>
73

> <JCHEM_ROTATABLE_BOND_COUNT>
2

> <ALOGPS_SOLUBILITY>
3.13e+01 g/l __ 

$$$$
