
  Mrv0541 02231216062D          

 11 11  0  0  1  0            999 V2000
    2.0198    0.8843    0.0000 C   0  0  0  0  0  0  0  0  0  0  0  0
    1.2352    0.6294    0.0000 C   0  0  1  0  0  0  0  0  0  0  0  0
    0.9803   -0.1553    0.0000 C   0  0  0  0  0  0  0  0  0  0  0  0
    0.1553   -0.1553    0.0000 C   0  0  1  0  0  0  0  0  0  0  0  0
   -0.3297   -0.8227    0.0000 N   0  0  0  0  0  0  0  0  0  0  0  0
    0.0059   -1.5764    0.0000 O   0  0  0  0  0  0  0  0  0  0  0  0
   -0.0997    0.6294    0.0000 N   0  0  0  0  0  0  0  0  0  0  0  0
    0.5678    1.1143    0.0000 C   0  0  2  0  0  0  0  0  0  0  0  0
    0.5678    1.9393    0.0000 C   0  0  0  0  0  0  0  0  0  0  0  0
   -0.1467    2.3518    0.0000 O   0  0  0  0  0  0  0  0  0  0  0  0
    1.2822    2.3518    0.0000 O   0  0  0  0  0  0  0  0  0  0  0  0
  2  1  1  1  0  0  0
  2  3  1  0  0  0  0
  3  4  1  0  0  0  0
  4  5  1  1  0  0  0
  5  6  1  0  0  0  0
  4  7  1  0  0  0  0
  7  8  1  0  0  0  0
  2  8  1  0  0  0  0
  8  9  1  6  0  0  0
  9 10  1  0  0  0  0
  9 11  2  0  0  0  0
M  END
> <DRUGBANK_ID>
DB02298

> <DRUG_GROUPS>
experimental

> <GENERIC_NAME>
5-Hydroxyamino-3-Methyl-Pyrrolidine-2-Carboxylic Acid

> <CHEMICAL_FORMULA>
C6H12N2O3

> <MOLECULAR_WEIGHT>
160.1711

> <EXACT_MASS>
160.08479226

> <IUPAC_NAME>
(2S,3S,5R)-5-(hydroxyamino)-3-methylpyrrolidine-2-carboxylic acid

> <IUPAC_TRADITIONAL_NAME>
(2S,3S,5R)-5-(hydroxyamino)-3-methylpyrrolidine-2-carboxylic acid

> <INCHI_IDENTIFIER>
InChI=1S/C6H12N2O3/c1-3-2-4(8-11)7-5(3)6(9)10/h3-5,7-8,11H,2H2,1H3,(H,9,10)/t3-,4+,5-/m0/s1

> <INCHI_KEY>
InChIKey=PEFGUPQPFCDBPY-LMVFSUKVSA-N

> <SMILES>
C[C@H]1C[C@@H](NO)N[C@@H]1C(O)=O

> <JCHEM_ACCEPTOR_COUNT>
5

> <JCHEM_DONOR_COUNT>
4

> <JCHEM_ACIDIC_PKA>
3.1

> <JCHEM_BASIC_PKA>
7.32

> <JCHEM_PHYSIOLOGICAL_CHARGE>
0

> <ALOGPS_LOGP>
-3.1

> <JCHEM_LOGP>
-2.7

> <ALOGPS_LOGS>
-0.72

> <JCHEM_POLARIZABILITY>
15.82

> <JCHEM_POLAR_SURFACE_AREA>
81.59

> <JCHEM_REFRACTIVITY>
47.59

> <JCHEM_ROTATABLE_BOND_COUNT>
2

> <ALOGPS_SOLUBILITY>
3.04e+01 g/l __ 

$$$$
