
  Mrv0541 02231216172D          

 29 32  0  0  0  0            999 V2000
    1.4289   -4.9500    0.0000 C    0  0  0  0  0  0  0  0  0  0  0  0
    1.4289   -4.1250    0.0000 S    0  0  0  0  0  0  0  0  0  0  0  0
    0.7145   -3.7125    0.0000 C    0  0  0  0  0  0  0  0  0  0  0  0
    0.0000   -4.1250    0.0000 C    0  0  0  0  0  0  0  0  0  0  0  0
   -0.7145   -3.7125    0.0000 C    0  0  0  0  0  0  0  0  0  0  0  0
   -0.7145   -2.8875    0.0000 C    0  0  0  0  0  0  0  0  0  0  0  0
    0.0000   -2.4750    0.0000 C    0  0  0  0  0  0  0  0  0  0  0  0
    0.0000   -1.6500    0.0000 N    0  0  0  0  0  0  0  0  0  0  0  0
    0.7145   -1.2375    0.0000 C    0  0  0  0  0  0  0  0  0  0  0  0
    0.7145   -0.4125    0.0000 N    0  0  0  0  0  0  0  0  0  0  0  0
    1.4289    0.0000    0.0000 C    0  0  0  0  0  0  0  0  0  0  0  0
    2.1434   -0.4125    0.0000 C    0  0  0  0  0  0  0  0  0  0  0  0
    2.8579    0.0000    0.0000 C    0  0  0  0  0  0  0  0  0  0  0  0
    3.5724   -0.4125    0.0000 C    0  0  0  0  0  0  0  0  0  0  0  0
    3.5724   -1.2375    0.0000 C    0  0  0  0  0  0  0  0  0  0  0  0
    4.2868   -1.6500    0.0000 O    0  0  0  0  0  0  0  0  0  0  0  0
    2.8579   -1.6500    0.0000 N    0  0  0  0  0  0  0  0  0  0  0  0
    2.8579   -2.4750    0.0000 C    0  0  0  0  0  0  0  0  0  0  0  0
    2.1434   -1.2375    0.0000 C    0  0  0  0  0  0  0  0  0  0  0  0
    1.4289   -1.6500    0.0000 N    0  0  0  0  0  0  0  0  0  0  0  0
    4.2868    0.0000    0.0000 C    0  0  0  0  0  0  0  0  0  0  0  0
    4.2868    0.8250    0.0000 C    0  0  0  0  0  0  0  0  0  0  0  0
    3.5724    1.2375    0.0000 Cl   0  0  0  0  0  0  0  0  0  0  0  0
    5.0013    1.2375    0.0000 C    0  0  0  0  0  0  0  0  0  0  0  0
    5.7158    0.8250    0.0000 C    0  0  0  0  0  0  0  0  0  0  0  0
    5.7158    0.0000    0.0000 C    0  0  0  0  0  0  0  0  0  0  0  0
    5.0013   -0.4125    0.0000 C    0  0  0  0  0  0  0  0  0  0  0  0
    5.0013   -1.2375    0.0000 Cl   0  0  0  0  0  0  0  0  0  0  0  0
    0.7145   -2.8875    0.0000 C    0  0  0  0  0  0  0  0  0  0  0  0
  1  2  1  0  0  0  0
  2  3  1  0  0  0  0
  3  4  2  0  0  0  0
  4  5  1  0  0  0  0
  5  6  2  0  0  0  0
  6  7  1  0  0  0  0
  7  8  1  0  0  0  0
  8  9  1  0  0  0  0
  9 10  2  0  0  0  0
 10 11  1  0  0  0  0
 11 12  2  0  0  0  0
 12 13  1  0  0  0  0
 13 14  2  0  0  0  0
 14 15  1  0  0  0  0
 15 16  2  0  0  0  0
 15 17  1  0  0  0  0
 17 18  1  0  0  0  0
 17 19  1  0  0  0  0
 12 19  1  0  0  0  0
 19 20  2  0  0  0  0
  9 20  1  0  0  0  0
 14 21  1  0  0  0  0
 21 22  2  0  0  0  0
 22 23  1  0  0  0  0
 22 24  1  0  0  0  0
 24 25  2  0  0  0  0
 25 26  1  0  0  0  0
 26 27  2  0  0  0  0
 21 27  1  0  0  0  0
 27 28  1  0  0  0  0
  7 29  2  0  0  0  0
  3 29  1  0  0  0  0
M  END
> <DRUGBANK_ID>
DB02567

> <DRUG_GROUPS>
experimental

> <GENERIC_NAME>
PD173955

> <SYNONYMS>
6-(2,6-dichlorophenyl)-8-methyl-2-{[3-(methylthio)phenyl]amino}pyrido[2,3-d]pyrimidin-7(8H)-one

> <CHEMICAL_FORMULA>
C21H16Cl2N4OS

> <MOLECULAR_WEIGHT>
443.349

> <EXACT_MASS>
442.042187258

> <IUPAC_NAME>
6-(2,6-dichlorophenyl)-8-methyl-2-{[3-(methylsulfanyl)phenyl]amino}-7H,8H-pyrido[2,3-d]pyrimidin-7-one

> <IUPAC_TRADITIONAL_NAME>
6-(2,6-dichlorophenyl)-8-methyl-2-{[3-(methylsulfanyl)phenyl]amino}pyrido[2,3-d]pyrimidin-7-one

> <INCHI_IDENTIFIER>
InChI=1S/C21H16Cl2N4OS/c1-27-19-12(9-15(20(27)28)18-16(22)7-4-8-17(18)23)11-24-21(26-19)25-13-5-3-6-14(10-13)29-2/h3-11H,1-2H3,(H,24,25,26)

> <INCHI_KEY>
InChIKey=VAARYSWULJUGST-UHFFFAOYSA-N

> <SMILES>
CSC1=CC=CC(NC2=NC=C3C=C(C(=O)N(C)C3=N2)C2=C(Cl)C=CC=C2Cl)=C1

> <JCHEM_ACCEPTOR_COUNT>
4

> <JCHEM_DONOR_COUNT>
1

> <JCHEM_ACIDIC_PKA>
12.99

> <JCHEM_BASIC_PKA>
1.51

> <JCHEM_PHYSIOLOGICAL_CHARGE>
0

> <ALOGPS_LOGP>
5.09

> <JCHEM_LOGP>
5.76

> <ALOGPS_LOGS>
-5.9

> <JCHEM_POLARIZABILITY>
45.05

> <JCHEM_POLAR_SURFACE_AREA>
58.12

> <JCHEM_REFRACTIVITY>
120.63

> <JCHEM_ROTATABLE_BOND_COUNT>
3

> <ALOGPS_SOLUBILITY>
6.16e-04 g/l __ 

$$$$
