ADL
  Mrv0541 02231215542D          

 21 23  0  0  0  0            999 V2000
    2.7924   -0.8501    0.0000 C   0  0  0  0  0  0  0  0  0  0  0  0
    2.0779   -1.2626    0.0000 C   0  0  0  0  0  0  0  0  0  0  0  0
    1.3634   -0.8501    0.0000 C   0  0  0  0  0  0  0  0  0  0  0  0
    1.3634   -0.0251    0.0000 C   0  0  0  0  0  0  0  0  0  0  0  0
    2.0779    0.3874    0.0000 C   0  0  0  0  0  0  0  0  0  0  0  0
    2.7924   -0.0251    0.0000 C   0  0  0  0  0  0  0  0  0  0  0  0
    0.6489    0.3874    0.0000 C   0  0  0  0  0  0  0  0  0  0  0  0
   -0.0655   -0.0251    0.0000 C   0  0  0  0  0  0  0  0  0  0  0  0
   -0.0655   -0.8501    0.0000 C   0  0  0  0  0  0  0  0  0  0  0  0
    0.6489   -1.2626    0.0000 C   0  0  0  0  0  0  0  0  0  0  0  0
   -0.7800    0.3874    0.0000 C   0  0  0  0  0  0  0  0  0  0  0  0
   -1.4945   -0.0251    0.0000 C   0  0  0  0  0  0  0  0  0  0  0  0
   -1.4945   -0.8501    0.0000 C   0  0  0  0  0  0  0  0  0  0  0  0
   -0.7800   -1.2626    0.0000 C   0  0  0  0  0  0  0  0  0  0  0  0
   -2.2089    0.3874    0.0000 C   0  0  0  0  0  0  0  0  0  0  0  0
   -2.2089    1.2124    0.0000 C   0  0  0  0  0  0  0  0  0  0  0  0
    2.0779    1.2124    0.0000 O   0  0  0  0  0  0  0  0  0  0  0  0
    0.6489    1.2124    0.0000 O   0  0  0  0  0  0  0  0  0  0  0  0
   -0.7800    1.2124    0.0000 O   0  0  0  0  0  0  0  0  0  0  0  0
   -2.9234    1.6249    0.0000 O   0  0  0  0  0  0  0  0  0  0  0  0
   -1.4945    1.6249    0.0000 O   0  0  0  0  0  0  0  0  0  0  0  0
  1  2  2  0  0  0  0
  1  6  1  0  0  0  0
  2  3  1  0  0  0  0
  3  4  2  0  0  0  0
  3 10  1  0  0  0  0
  4  5  1  0  0  0  0
  4  7  1  0  0  0  0
  5  6  2  0  0  0  0
  5 17  1  0  0  0  0
  7  8  1  0  0  0  0
  7 18  2  0  0  0  0
  8  9  2  0  0  0  0
  8 11  1  0  0  0  0
  9 10  1  0  0  0  0
  9 14  1  0  0  0  0
 11 12  2  0  0  0  0
 11 19  1  0  0  0  0
 12 13  1  0  0  0  0
 12 15  1  0  0  0  0
 13 14  2  0  0  0  0
 15 16  1  0  0  0  0
 16 20  2  0  0  0  0
 16 21  1  0  0  0  0
M  END
> <DRUGBANK_ID>
DB02019

> <DRUG_GROUPS>
experimental

> <GENERIC_NAME>
Acetyl Dithranol

> <CHEMICAL_FORMULA>
C16H12O5

> <MOLECULAR_WEIGHT>
284.2635

> <EXACT_MASS>
284.068473494

> <IUPAC_NAME>
2-(1,8-dihydroxy-9-oxo-9,10-dihydroanthracen-2-yl)acetic acid

> <IUPAC_TRADITIONAL_NAME>
acetyl dithranol

> <INCHI_IDENTIFIER>
InChI=1S/C16H12O5/c17-11-3-1-2-8-6-9-4-5-10(7-12(18)19)15(20)14(9)16(21)13(8)11/h1-5,17,20H,6-7H2,(H,18,19)

> <INCHI_KEY>
InChIKey=IXLRLZOYKJERRA-UHFFFAOYSA-N

> <SMILES>
OC(=O)CC1=C(O)C2=C(CC3=C(C(O)=CC=C3)C2=O)C=C1

> <JCHEM_ACCEPTOR_COUNT>
5

> <JCHEM_DONOR_COUNT>
3

> <JCHEM_ACIDIC_PKA>
3.41

> <JCHEM_BASIC_PKA>
-4.4

> <JCHEM_PHYSIOLOGICAL_CHARGE>
-1

> <ALOGPS_LOGP>
2.81

> <JCHEM_LOGP>
3.88

> <ALOGPS_LOGS>
-3.5

> <JCHEM_POLARIZABILITY>
28.29

> <JCHEM_POLAR_SURFACE_AREA>
94.83

> <JCHEM_REFRACTIVITY>
75.58

> <JCHEM_ROTATABLE_BOND_COUNT>
2

> <ALOGPS_SOLUBILITY>
9.48e-02 g/l __ 

$$$$
