3IP
  Mrv0541 02231216092D          

 15 16  0  0  0  0            999 V2000
    1.7338    0.9818    0.0000 N   0  0  0  0  0  0  0  0  0  0  0  0
    1.7338    0.1568    0.0000 C   0  0  0  0  0  0  0  0  0  0  0  0
    2.4483   -0.2557    0.0000 N   0  0  0  0  0  0  0  0  0  0  0  0
    2.4483   -1.0807    0.0000 C   0  0  0  0  0  0  0  0  0  0  0  0
    1.7338   -1.4932    0.0000 C   0  0  0  0  0  0  0  0  0  0  0  0
    1.0194   -1.0807    0.0000 C   0  0  0  0  0  0  0  0  0  0  0  0
    1.0194   -0.2557    0.0000 C   0  0  0  0  0  0  0  0  0  0  0  0
    0.3049    0.1568    0.0000 O   0  0  0  0  0  0  0  0  0  0  0  0
   -0.4096   -0.2557    0.0000 C   0  0  0  0  0  0  0  0  0  0  0  0
   -1.1240    0.1568    0.0000 C   0  0  0  0  0  0  0  0  0  0  0  0
   -1.8385   -0.2557    0.0000 C   0  0  0  0  0  0  0  0  0  0  0  0
   -2.5530    0.1568    0.0000 C   0  0  0  0  0  0  0  0  0  0  0  0
   -2.5530    0.9818    0.0000 C   0  0  0  0  0  0  0  0  0  0  0  0
   -1.8385    1.3943    0.0000 C   0  0  0  0  0  0  0  0  0  0  0  0
   -1.1240    0.9818    0.0000 C   0  0  0  0  0  0  0  0  0  0  0  0
  1  2  1  0  0  0  0
  2  3  2  0  0  0  0
  2  7  1  0  0  0  0
  3  4  1  0  0  0  0
  4  5  2  0  0  0  0
  5  6  1  0  0  0  0
  6  7  2  0  0  0  0
  7  8  1  0  0  0  0
  8  9  1  0  0  0  0
  9 10  1  0  0  0  0
 10 11  2  0  0  0  0
 10 15  1  0  0  0  0
 11 12  1  0  0  0  0
 12 13  2  0  0  0  0
 13 14  1  0  0  0  0
 14 15  2  0  0  0  0
M  END
> <DRUGBANK_ID>
DB02352

> <DRUG_GROUPS>
experimental

> <GENERIC_NAME>
3-(Benzyloxy)Pyridin-2-Amine

> <CHEMICAL_FORMULA>
C12H12N2O

> <MOLECULAR_WEIGHT>
200.2365

> <EXACT_MASS>
200.094963016

> <IUPAC_NAME>
3-(benzyloxy)pyridin-2-amine

> <IUPAC_TRADITIONAL_NAME>
3-(benzyloxy)pyridin-2-amine

> <INCHI_IDENTIFIER>
InChI=1S/C12H12N2O/c13-12-11(7-4-8-14-12)15-9-10-5-2-1-3-6-10/h1-8H,9H2,(H2,13,14)

> <INCHI_KEY>
InChIKey=NMCBWICNRJLKKM-UHFFFAOYSA-N

> <SMILES>
NC1=NC=CC=C1OCC1=CC=CC=C1

> <JCHEM_ACCEPTOR_COUNT>
3

> <JCHEM_DONOR_COUNT>
1

> <JCHEM_BASIC_PKA>
6.53

> <JCHEM_PHYSIOLOGICAL_CHARGE>
0

> <ALOGPS_LOGP>
2

> <JCHEM_LOGP>
2.09

> <ALOGPS_LOGS>
-1.5

> <JCHEM_POLARIZABILITY>
21.54

> <JCHEM_POLAR_SURFACE_AREA>
48.14

> <JCHEM_REFRACTIVITY>
59.99

> <JCHEM_ROTATABLE_BOND_COUNT>
3

> <ALOGPS_SOLUBILITY>
6.29e+00 g/l __ 

$$$$
