TQT
  Mrv0541 02231216172D          

 29 32  0  0  0  0            999 V2000
    0.7637    2.8031    0.0000 C   0  0  1  0  0  0  0  0  0  0  0  0
   -0.5954    2.3616    0.0000 C   0  0  1  0  0  0  0  0  0  0  0  0
   -0.3404    1.5769    0.0000 C   0  0  1  0  0  0  0  0  0  0  0  0
   -0.6375    0.1792    0.0000 C   0  0  2  0  0  0  0  0  0  0  0  0
    0.1695    0.0077    0.0000 C   0  0  0  0  0  0  0  0  0  0  0  0
    0.4666    1.4054    0.0000 C   0  0  1  0  0  0  0  0  0  0  0  0
   -1.1895   -0.4339    0.0000 C   0  0  0  0  0  0  0  0  0  0  0  0
   -1.4195   -1.8859    0.0000 C   0  0  0  0  0  0  0  0  0  0  0  0
   -0.1500   -1.4734    0.0000 C   0  0  1  0  0  0  0  0  0  0  0  0
    0.5645   -1.0609    0.0000 C   0  0  0  0  0  0  0  0  0  0  0  0
    1.2790   -1.4734    0.0000 C   0  0  0  0  0  0  0  0  0  0  0  0
    1.2790   -2.2984    0.0000 C   0  0  0  0  0  0  0  0  0  0  0  0
    0.5645   -2.7109    0.0000 C   0  0  0  0  0  0  0  0  0  0  0  0
   -0.1500   -2.2984    0.0000 C   0  0  2  0  0  0  0  0  0  0  0  0
   -0.9346   -2.5534    0.0000 C   0  0  0  0  0  0  0  0  0  0  0  0
    1.0186    2.0185    0.0000 N   0  0  0  0  0  0  0  0  0  0  0  0
    1.3157    3.4162    0.0000 N   0  0  0  0  0  0  0  0  0  0  0  0
   -0.0433    2.9747    0.0000 N   0  0  0  0  0  0  0  0  0  0  0  0
   -1.4023    2.5331    0.0000 N   0  0  0  0  0  0  0  0  0  0  0  0
   -0.8924    0.9638    0.0000 C   0  0  0  0  0  0  0  0  0  0  0  0
    0.7215    0.6208    0.0000 C   0  0  0  0  0  0  0  0  0  0  0  0
   -0.9346   -1.2185    0.0000 N   0  0  0  0  0  0  0  0  0  0  0  0
    1.3348    2.6817    0.0000 H   0  0  0  0  0  0  0  0  0  0  0  0
   -0.8141    1.8201    0.0000 H   0  0  0  0  0  0  0  0  0  0  0  0
   -0.9187    1.4957    0.0000 H   0  0  0  0  0  0  0  0  0  0  0  0
   -0.4571   -0.3761    0.0000 H   0  0  0  0  0  0  0  0  0  0  0  0
    1.0377    1.2840    0.0000 H   0  0  0  0  0  0  0  0  0  0  0  0
   -0.2110   -0.8927    0.0000 H   0  0  0  0  0  0  0  0  0  0  0  0
   -0.2110   -2.8792    0.0000 H   0  0  0  0  0  0  0  0  0  0  0  0
  1 16  1  0  0  0  0
  1 17  1  6  0  0  0
  1 18  1  0  0  0  0
  1 23  1  1  0  0  0
  2  3  1  0  0  0  0
  2 18  1  0  0  0  0
  2 19  1  6  0  0  0
  2 24  1  1  0  0  0
  3  6  1  0  0  0  0
  3 20  1  0  0  0  0
  3 25  1  6  0  0  0
  4  5  1  0  0  0  0
  4  7  1  6  0  0  0
  4 20  1  0  0  0  0
  4 26  1  1  0  0  0
  5 21  1  0  0  0  0
  6 16  1  0  0  0  0
  6 21  1  0  0  0  0
  6 27  1  6  0  0  0
  7 22  1  0  0  0  0
  8 15  1  0  0  0  0
  8 22  1  0  0  0  0
  9 10  1  0  0  0  0
  9 14  1  0  0  0  0
  9 22  1  0  0  0  0
  9 28  1  6  0  0  0
 10 11  1  0  0  0  0
 11 12  1  0  0  0  0
 12 13  1  0  0  0  0
 13 14  1  0  0  0  0
 14 15  1  0  0  0  0
 14 29  1  1  0  0  0
M  END
> <DRUGBANK_ID>
DB02559

> <DRUG_GROUPS>
experimental

> <GENERIC_NAME>
6-(Octahydro-1h-Indol-1-Ylmethyl)Decahydroquinazoline-2,4-Diamine

> <CHEMICAL_FORMULA>
C17H33N5

> <MOLECULAR_WEIGHT>
307.4774

> <EXACT_MASS>
307.273596081

> <IUPAC_NAME>
(2R,4R,4aR,6S,8aS)-6-[(3aR,7aS)-octahydro-1H-indol-1-ylmethyl]-decahydroquinazoline-2,4-diamine

> <IUPAC_TRADITIONAL_NAME>
(2R,4R,4aR,6S,8aS)-6-[(3aR,7aS)-octahydroindol-1-ylmethyl]-decahydroquinazoline-2,4-diamine

> <INCHI_IDENTIFIER>
InChI=1S/C17H33N5/c18-16-13-9-11(5-6-14(13)20-17(19)21-16)10-22-8-7-12-3-1-2-4-15(12)22/h11-17,20-21H,1-10,18-19H2/t11-,12+,13+,14-,15-,16+,17+/m0/s1

> <INCHI_KEY>
InChIKey=HDQIGGQUKAQTGU-SZTTVXCBSA-N

> <SMILES>
[H][C@@]12CCN(C[C@@]3([H])CC[C@]4([H])N[C@@]([H])(N)N[C@@]([H])(N)[C@]4([H])C3)[C@@]1([H])CCCC2

> <JCHEM_ACCEPTOR_COUNT>
5

> <JCHEM_DONOR_COUNT>
4

> <JCHEM_BASIC_PKA>
11.12

> <JCHEM_PHYSIOLOGICAL_CHARGE>
2

> <ALOGPS_LOGP>
0.33

> <JCHEM_LOGP>
1.61

> <ALOGPS_LOGS>
-2.9

> <JCHEM_POLARIZABILITY>
36.58

> <JCHEM_POLAR_SURFACE_AREA>
79.34

> <JCHEM_REFRACTIVITY>
89.02

> <JCHEM_ROTATABLE_BOND_COUNT>
2

> <ALOGPS_SOLUBILITY>
4.15e-01 g/l __ 

$$$$
