
  Mrv0541 02231216102D          

 12 11  0  0  1  0            999 V2000
    7.2849    3.3809    0.0000 N   0  0  0  0  0  0  0  0  0  0  0  0
    7.2849    2.5559    0.0000 C   0  0  1  0  0  0  0  0  0  0  0  0
    6.5704    2.1434    0.0000 C   0  0  0  0  0  0  0  0  0  0  0  0
    5.8559    2.5559    0.0000 C   0  0  0  0  0  0  0  0  0  0  0  0
    5.1414    2.1434    0.0000 N   0  0  0  0  0  0  0  0  0  0  0  0
    4.4270    2.5559    0.0000 C   0  0  0  0  0  0  0  0  0  0  0  0
    4.4270    3.3809    0.0000 N   0  0  0  0  0  0  0  0  0  0  0  0
    3.7125    2.1434    0.0000 N   0  0  0  0  0  0  0  0  0  0  0  0
    2.9980    2.5559    0.0000 O   0  0  0  0  0  0  0  0  0  0  0  0
    7.9993    2.1434    0.0000 C   0  0  0  0  0  0  0  0  0  0  0  0
    8.7138    2.5559    0.0000 O   0  0  0  0  0  0  0  0  0  0  0  0
    7.9993    1.3184    0.0000 O   0  0  0  0  0  0  0  0  0  0  0  0
  2  1  1  6  0  0  0
  2  3  1  0  0  0  0
  3  4  1  0  0  0  0
  4  5  1  0  0  0  0
  5  6  1  0  0  0  0
  6  7  2  0  0  0  0
  6  8  1  0  0  0  0
  8  9  1  0  0  0  0
  2 10  1  0  0  0  0
 10 11  1  0  0  0  0
 10 12  2  0  0  0  0
M  END
> <DRUGBANK_ID>
DB02381

> <DRUG_GROUPS>
experimental

> <GENERIC_NAME>
Nor-N-Omega-Hydroxy-L-Arginine

> <CHEMICAL_FORMULA>
C5H12N4O3

> <MOLECULAR_WEIGHT>
176.1738

> <EXACT_MASS>
176.09094027

> <IUPAC_NAME>
(2S)-2-amino-4-(1-hydroxycarbamimidamido)butanoic acid

> <IUPAC_TRADITIONAL_NAME>
(2S)-2-amino-4-(1-hydroxycarbamimidamido)butanoic acid

> <INCHI_IDENTIFIER>
InChI=1S/C5H12N4O3/c6-3(4(10)11)1-2-8-5(7)9-12/h3,12H,1-2,6H2,(H,10,11)(H3,7,8,9)/t3-/m0/s1

> <INCHI_KEY>
InChIKey=KOBHCUDVWOTEKO-VKHMYHEASA-N

> <SMILES>
N[C@@H](CCNC(=N)NO)C(O)=O

> <JCHEM_ACCEPTOR_COUNT>
7

> <JCHEM_DONOR_COUNT>
6

> <JCHEM_ACIDIC_PKA>
2.08

> <JCHEM_BASIC_PKA>
10.57

> <JCHEM_PHYSIOLOGICAL_CHARGE>
1

> <ALOGPS_LOGP>
-3.6

> <JCHEM_LOGP>
-3.7

> <ALOGPS_LOGS>
-1.9

> <JCHEM_POLARIZABILITY>
16.73

> <JCHEM_POLAR_SURFACE_AREA>
131.46

> <JCHEM_REFRACTIVITY>
61.54

> <JCHEM_ROTATABLE_BOND_COUNT>
4

> <ALOGPS_SOLUBILITY>
2.24e+00 g/l __ 

$$$$
