
  Mrv0541 02231216062D          

 19 21  0  0  0  0            999 V2000
    4.8395    0.4125    0.0000 C   0  0  0  0  0  0  0  0  0  0  0  0
    4.0145    0.4125    0.0000 C   0  0  0  0  0  0  0  0  0  0  0  0
    3.6020   -0.3020    0.0000 C   0  0  0  0  0  0  0  0  0  0  0  0
    2.7770   -0.3020    0.0000 N   0  0  0  0  0  0  0  0  0  0  0  0
    2.3645    0.4125    0.0000 C   0  0  0  0  0  0  0  0  0  0  0  0
    2.7770    1.1270    0.0000 C   0  0  0  0  0  0  0  0  0  0  0  0
    3.6020    1.1270    0.0000 C   0  0  0  0  0  0  0  0  0  0  0  0
    2.3645    1.8414    0.0000 C   0  0  0  0  0  0  0  0  0  0  0  0
    2.7770    2.5559    0.0000 C   0  0  0  0  0  0  0  0  0  0  0  0
    1.5395    1.8414    0.0000 C   0  0  0  0  0  0  0  0  0  0  0  0
    1.1270    2.5559    0.0000 C   0  0  0  0  0  0  0  0  0  0  0  0
    1.1270    1.1270    0.0000 C   0  0  0  0  0  0  0  0  0  0  0  0
    1.5395    0.4125    0.0000 C   0  0  0  0  0  0  0  0  0  0  0  0
    1.1270   -0.3020    0.0000 N   0  3  0  0  0  0  0  0  0  0  0  0
    1.5395   -1.0164    0.0000 C   0  0  0  0  0  0  0  0  0  0  0  0
    0.3020   -0.3020    0.0000 C   0  0  0  0  0  0  0  0  0  0  0  0
   -0.1105    0.4125    0.0000 C   0  0  0  0  0  0  0  0  0  0  0  0
   -0.9355    0.4125    0.0000 C   0  0  0  0  0  0  0  0  0  0  0  0
    0.3020    1.1270    0.0000 C   0  0  0  0  0  0  0  0  0  0  0  0
  1  2  1  0  0  0  0
  2  3  2  0  0  0  0
  3  4  1  0  0  0  0
  4  5  2  0  0  0  0
  5  6  1  0  0  0  0
  6  7  2  0  0  0  0
  2  7  1  0  0  0  0
  6  8  1  0  0  0  0
  8  9  1  0  0  0  0
  8 10  2  0  0  0  0
 10 11  1  0  0  0  0
 10 12  1  0  0  0  0
 12 13  2  0  0  0  0
  5 13  1  0  0  0  0
 13 14  1  0  0  0  0
 14 15  1  0  0  0  0
 14 16  2  0  0  0  0
 16 17  1  0  0  0  0
 17 18  1  0  0  0  0
 17 19  2  0  0  0  0
 12 19  1  0  0  0  0
M  END
> <DRUGBANK_ID>
DB02310

> <DRUG_GROUPS>
experimental

> <GENERIC_NAME>
3,5,6,8-Tetramethyl-N-Methyl Phenanthrolinium

> <CHEMICAL_FORMULA>
C17H19N2

> <MOLECULAR_WEIGHT>
251.3462

> <EXACT_MASS>
251.154823618

> <IUPAC_NAME>
1,3,5,6,8-pentamethyl-1,10-phenanthrolin-1-ium

> <IUPAC_TRADITIONAL_NAME>
1,3,5,6,8-pentamethyl-1,10-phenanthrolin-1-ium

> <INCHI_IDENTIFIER>
InChI=1S/C17H19N2/c1-10-6-14-12(3)13(4)15-7-11(2)9-19(5)17(15)16(14)18-8-10/h6-9H,1-5H3/q+1

> <INCHI_KEY>
InChIKey=FQTUZNACZKILMC-UHFFFAOYSA-N

> <SMILES>
CC1=CN=C2C(=C1)C(C)=C(C)C1=C2[N+](C)=CC(C)=C1

> <JCHEM_ACCEPTOR_COUNT>
1

> <JCHEM_DONOR_COUNT>
0

> <JCHEM_BASIC_PKA>
3.53

> <JCHEM_PHYSIOLOGICAL_CHARGE>
1

> <ALOGPS_LOGP>
-1.6

> <JCHEM_LOGP>
0.042

> <ALOGPS_LOGS>
-6.1

> <JCHEM_POLARIZABILITY>
30.34

> <JCHEM_POLAR_SURFACE_AREA>
16.77

> <JCHEM_REFRACTIVITY>
80.47

> <JCHEM_ROTATABLE_BOND_COUNT>
0

> <ALOGPS_SOLUBILITY>
2.05e-04 g/l __ 

$$$$
