
  Mrv0541 02231215592D          

 11 11  0  0  1  0            999 V2000
    2.8579    0.0000    0.0000 O   0  0  0  0  0  0  0  0  0  0  0  0
    2.1434   -0.4125    0.0000 C   0  0  0  0  0  0  0  0  0  0  0  0
    2.1434   -1.2375    0.0000 O   0  0  0  0  0  0  0  0  0  0  0  0
    1.4289    0.0000    0.0000 C   0  0  2  0  0  0  0  0  0  0  0  0
    0.7145   -0.4125    0.0000 C   0  0  0  0  0  0  0  0  0  0  0  0
    0.0000    0.0000    0.0000 C   0  0  0  0  0  0  0  0  0  0  0  0
   -0.7145   -0.4125    0.0000 O   0  0  0  0  0  0  0  0  0  0  0  0
    0.0000    0.8250    0.0000 N   0  0  0  0  0  0  0  0  0  0  0  0
    0.7145    1.2375    0.0000 C   0  0  0  0  0  0  0  0  0  0  0  0
    0.7145    2.0625    0.0000 O   0  0  0  0  0  0  0  0  0  0  0  0
    1.4289    0.8250    0.0000 N   0  0  0  0  0  0  0  0  0  0  0  0
  1  2  1  0  0  0  0
  2  3  2  0  0  0  0
  4  2  1  6  0  0  0
  4  5  1  0  0  0  0
  5  6  1  0  0  0  0
  6  7  2  0  0  0  0
  6  8  1  0  0  0  0
  8  9  1  0  0  0  0
  9 10  2  0  0  0  0
  9 11  1  0  0  0  0
  4 11  1  0  0  0  0
M  END
> <DRUGBANK_ID>
DB02129

> <DRUG_GROUPS>
experimental

> <GENERIC_NAME>
Dihydroorotic Acid

> <CHEMICAL_FORMULA>
C5H6N2O4

> <MOLECULAR_WEIGHT>
158.1121

> <EXACT_MASS>
158.03275669

> <IUPAC_NAME>
(4S)-2,6-dioxo-1,3-diazinane-4-carboxylic acid

> <IUPAC_TRADITIONAL_NAME>
dihydroorotic acid

> <INCHI_IDENTIFIER>
InChI=1S/C5H6N2O4/c8-3-1-2(4(9)10)6-5(11)7-3/h2H,1H2,(H,9,10)(H2,6,7,8,11)/t2-/m0/s1

> <INCHI_KEY>
InChIKey=UFIVEPVSAGBUSI-REOHCLBHSA-N

> <SMILES>
OC(=O)[C@@H]1CC(=O)NC(=O)N1

> <JCHEM_ACCEPTOR_COUNT>
4

> <JCHEM_DONOR_COUNT>
3

> <JCHEM_ACIDIC_PKA>
3.28

> <JCHEM_BASIC_PKA>
-8.2

> <JCHEM_PHYSIOLOGICAL_CHARGE>
-1

> <ALOGPS_LOGP>
-1.7

> <JCHEM_LOGP>
-1.5

> <ALOGPS_LOGS>
-1.1

> <JCHEM_POLARIZABILITY>
13.02

> <JCHEM_POLAR_SURFACE_AREA>
95.5

> <JCHEM_REFRACTIVITY>
31.58

> <JCHEM_ROTATABLE_BOND_COUNT>
1

> <ALOGPS_SOLUBILITY>
1.27e+01 g/l __ 

$$$$
