
  Mrv0541 02231216032D          

 14 14  0  0  0  0            999 V2000
   -2.8579   -2.4750    0.0000 O   0  0  0  0  0  0  0  0  0  0  0  0
   -2.1434   -2.8875    0.0000 S   0  0  0  0  0  0  0  0  0  0  0  0
   -2.5559   -3.6020    0.0000 O   0  0  0  0  0  0  0  0  0  0  0  0
   -1.7309   -2.1730    0.0000 O   0  0  0  0  0  0  0  0  0  0  0  0
   -1.4289   -3.3000    0.0000 C   0  0  0  0  0  0  0  0  0  0  0  0
   -0.7145   -2.8875    0.0000 C   0  0  0  0  0  0  0  0  0  0  0  0
    0.0000   -3.3000    0.0000 C   0  0  0  0  0  0  0  0  0  0  0  0
    0.7145   -2.8875    0.0000 N   0  0  0  0  0  0  0  0  0  0  0  0
    1.4289   -3.3000    0.0000 C   0  0  0  0  0  0  0  0  0  0  0  0
    2.1434   -2.8875    0.0000 C   0  0  0  0  0  0  0  0  0  0  0  0
    2.8579   -3.3000    0.0000 C   0  0  0  0  0  0  0  0  0  0  0  0
    2.8579   -4.1250    0.0000 C   0  0  0  0  0  0  0  0  0  0  0  0
    2.1434   -4.5375    0.0000 C   0  0  0  0  0  0  0  0  0  0  0  0
    1.4289   -4.1250    0.0000 C   0  0  0  0  0  0  0  0  0  0  0  0
  1  2  1  0  0  0  0
  2  3  2  0  0  0  0
  2  4  2  0  0  0  0
  2  5  1  0  0  0  0
  5  6  1  0  0  0  0
  6  7  1  0  0  0  0
  7  8  1  0  0  0  0
  8  9  1  0  0  0  0
  9 10  1  0  0  0  0
 10 11  1  0  0  0  0
 11 12  1  0  0  0  0
 12 13  1  0  0  0  0
 13 14  1  0  0  0  0
  9 14  1  0  0  0  0
M  END
> <DRUGBANK_ID>
DB02219

> <DRUG_GROUPS>
experimental

> <GENERIC_NAME>
3-Cyclohexyl-1-Propylsulfonic Acid

> <CHEMICAL_FORMULA>
C9H19NO3S

> <MOLECULAR_WEIGHT>
221.317

> <EXACT_MASS>
221.108564169

> <IUPAC_NAME>
3-(cyclohexylamino)propane-1-sulfonic acid

> <IUPAC_TRADITIONAL_NAME>
CAPS

> <INCHI_IDENTIFIER>
InChI=1S/C9H19NO3S/c11-14(12,13)8-4-7-10-9-5-2-1-3-6-9/h9-10H,1-8H2,(H,11,12,13)

> <INCHI_KEY>
InChIKey=PJWWRFATQTVXHA-UHFFFAOYSA-N

> <SMILES>
OS(=O)(=O)CCCNC1CCCCC1

> <JCHEM_ACCEPTOR_COUNT>
4

> <JCHEM_DONOR_COUNT>
2

> <JCHEM_ACIDIC_PKA>
-0.53

> <JCHEM_BASIC_PKA>
10.45

> <JCHEM_PHYSIOLOGICAL_CHARGE>
0

> <ALOGPS_LOGP>
-0.84

> <JCHEM_LOGP>
-0.53

> <ALOGPS_LOGS>
-2.2

> <JCHEM_POLARIZABILITY>
24.01

> <JCHEM_POLAR_SURFACE_AREA>
66.4

> <JCHEM_REFRACTIVITY>
55.26

> <JCHEM_ROTATABLE_BOND_COUNT>
5

> <ALOGPS_SOLUBILITY>
1.51e+00 g/l __ 

$$$$
