
  Mrv0541 02231216162D          

 35 37  0  0  1  0            999 V2000
   -6.4302    1.2375    0.0000 N   0  0  0  0  0  0  0  0  0  0  0  0
   -5.7158    1.6500    0.0000 C   0  0  0  0  0  0  0  0  0  0  0  0
   -5.7158    2.4750    0.0000 N   0  0  0  0  0  0  0  0  0  0  0  0
   -5.0013    2.8875    0.0000 C   0  0  0  0  0  0  0  0  0  0  0  0
   -5.0013    3.7125    0.0000 C   0  0  0  0  0  0  0  0  0  0  0  0
   -4.2868    4.1250    0.0000 C   0  0  0  0  0  0  0  0  0  0  0  0
   -3.5724    3.7125    0.0000 C   0  0  0  0  0  0  0  0  0  0  0  0
   -2.8579    4.1250    0.0000 C   0  0  0  0  0  0  0  0  0  0  0  0
   -2.8579    4.9500    0.0000 C   0  0  1  0  0  0  0  0  0  0  0  0
   -3.5724    5.3625    0.0000 C   0  0  0  0  0  0  0  0  0  0  0  0
   -3.5724    6.1875    0.0000 O   0  0  0  0  0  0  0  0  0  0  0  0
   -4.2868    4.9500    0.0000 O   0  0  0  0  0  0  0  0  0  0  0  0
   -2.1434    5.3625    0.0000 C   0  0  0  0  0  0  0  0  0  0  0  0
   -2.1434    6.1875    0.0000 C   0  0  0  0  0  0  0  0  0  0  0  0
   -1.4289    6.6000    0.0000 C   0  0  0  0  0  0  0  0  0  0  0  0
   -0.7145    6.1875    0.0000 C   0  0  0  0  0  0  0  0  0  0  0  0
   -0.7145    5.3625    0.0000 C   0  0  0  0  0  0  0  0  0  0  0  0
   -1.4289    4.9500    0.0000 C   0  0  0  0  0  0  0  0  0  0  0  0
    0.0000    6.6000    0.0000 C   0  0  0  0  0  0  0  0  0  0  0  0
    0.0000    7.4250    0.0000 O   0  0  0  0  0  0  0  0  0  0  0  0
    0.7145    6.1875    0.0000 N   0  0  0  0  0  0  0  0  0  0  0  0
    1.4289    6.6000    0.0000 C   0  0  2  0  0  0  0  0  0  0  0  0
    2.1434    6.1875    0.0000 C   0  0  0  0  0  0  0  0  0  0  0  0
    2.8579    6.6000    0.0000 C   0  0  0  0  0  0  0  0  0  0  0  0
    3.5724    6.1875    0.0000 C   0  0  0  0  0  0  0  0  0  0  0  0
    4.2868    6.6000    0.0000 O   0  0  0  0  0  0  0  0  0  0  0  0
    3.5724    5.3625    0.0000 O   0  0  0  0  0  0  0  0  0  0  0  0
    1.4289    7.4250    0.0000 C   0  0  0  0  0  0  0  0  0  0  0  0
    2.1434    7.8375    0.0000 O   0  0  0  0  0  0  0  0  0  0  0  0
    0.7145    7.8375    0.0000 O   0  0  0  0  0  0  0  0  0  0  0  0
   -3.5724    2.8875    0.0000 C   0  0  0  0  0  0  0  0  0  0  0  0
   -4.2868    2.4750    0.0000 C   0  0  0  0  0  0  0  0  0  0  0  0
   -4.2868    1.6500    0.0000 C   0  0  0  0  0  0  0  0  0  0  0  0
   -3.5724    1.2375    0.0000 O   0  0  0  0  0  0  0  0  0  0  0  0
   -5.0013    1.2375    0.0000 N   0  0  0  0  0  0  0  0  0  0  0  0
  1  2  1  0  0  0  0
  2  3  2  0  0  0  0
  3  4  1  0  0  0  0
  4  5  2  0  0  0  0
  5  6  1  0  0  0  0
  6  7  2  0  0  0  0
  7  8  1  0  0  0  0
  8  9  1  0  0  0  0
  9 10  1  0  0  0  0
 10 11  1  0  0  0  0
 10 12  2  0  0  0  0
  9 13  1  1  0  0  0
 13 14  2  0  0  0  0
 14 15  1  0  0  0  0
 15 16  2  0  0  0  0
 16 17  1  0  0  0  0
 17 18  2  0  0  0  0
 13 18  1  0  0  0  0
 16 19  1  0  0  0  0
 19 20  2  0  0  0  0
 19 21  1  0  0  0  0
 22 21  1  1  0  0  0
 22 23  1  0  0  0  0
 23 24  1  0  0  0  0
 24 25  1  0  0  0  0
 25 26  1  0  0  0  0
 25 27  2  0  0  0  0
 22 28  1  0  0  0  0
 28 29  1  0  0  0  0
 28 30  2  0  0  0  0
  7 31  1  0  0  0  0
 31 32  2  0  0  0  0
  4 32  1  0  0  0  0
 32 33  1  0  0  0  0
 33 34  2  0  0  0  0
 33 35  1  0  0  0  0
  2 35  1  0  0  0  0
M  END
> <DRUGBANK_ID>
DB02540

> <DRUG_GROUPS>
experimental

> <GENERIC_NAME>
(10S)-10-Formyl-5,8,10-Trideazafolic Acid

> <CHEMICAL_FORMULA>
C23H22N4O8

> <MOLECULAR_WEIGHT>
482.4428

> <EXACT_MASS>
482.1437637

> <IUPAC_NAME>
(2R)-2-({4-[(1R)-2-(2-amino-4-oxo-3,4-dihydroquinazolin-6-yl)-1-carboxyethyl]phenyl}formamido)pentanedioic acid

> <IUPAC_TRADITIONAL_NAME>
(2R)-2-({4-[(1R)-2-(2-amino-4-oxo-3H-quinazolin-6-yl)-1-carboxyethyl]phenyl}formamido)pentanedioic acid

> <INCHI_IDENTIFIER>
InChI=1S/C23H22N4O8/c24-23-26-16-6-1-11(10-15(16)20(31)27-23)9-14(21(32)33)12-2-4-13(5-3-12)19(30)25-17(22(34)35)7-8-18(28)29/h1-6,10,14,17H,7-9H2,(H,25,30)(H,28,29)(H,32,33)(H,34,35)(H3,24,26,27,31)/t14-,17-/m1/s1

> <INCHI_KEY>
InChIKey=DAOQLLQRJAXMGY-RHSMWYFYSA-N

> <SMILES>
NC1=NC2=CC=C(C[C@@H](C(O)=O)C3=CC=C(C=C3)C(=O)N[C@H](CCC(O)=O)C(O)=O)C=C2C(=O)N1

> <JCHEM_ACCEPTOR_COUNT>
10

> <JCHEM_DONOR_COUNT>
6

> <JCHEM_ACIDIC_PKA>
2.75

> <JCHEM_BASIC_PKA>
5.23

> <JCHEM_PHYSIOLOGICAL_CHARGE>
-3

> <ALOGPS_LOGP>
0.73

> <JCHEM_LOGP>
-0.14

> <ALOGPS_LOGS>
-4.1

> <JCHEM_POLARIZABILITY>
46.33

> <JCHEM_POLAR_SURFACE_AREA>
208.48

> <JCHEM_REFRACTIVITY>
122.11

> <JCHEM_ROTATABLE_BOND_COUNT>
10

> <ALOGPS_SOLUBILITY>
3.92e-02 g/l __ 

$$$$
