
  Mrv0541 02231216192D          

 15 15  0  0  1  0            999 V2000
    2.1434   -0.4125    0.0000 O   0  0  0  0  0  0  0  0  0  0  0  0
    1.4289    0.0000    0.0000 C   0  0  1  0  0  0  0  0  0  0  0  0
    0.7145   -0.4125    0.0000 C   0  0  0  0  0  0  0  0  0  0  0  0
    0.0000    0.0000    0.0000 C   0  0  1  0  0  0  0  0  0  0  0  0
   -0.7145   -0.4125    0.0000 O   0  0  0  0  0  0  0  0  0  0  0  0
    0.0000    0.8250    0.0000 C   0  0  2  0  0  0  0  0  0  0  0  0
   -0.7145    1.2375    0.0000 O   0  0  0  0  0  0  0  0  0  0  0  0
    0.7145    1.2375    0.0000 C   0  0  1  0  0  0  0  0  0  0  0  0
    0.7145    2.0625    0.0000 C   0  0  0  0  0  0  0  0  0  0  0  0
    1.4289    2.4750    0.0000 O   0  0  0  0  0  0  0  0  0  0  0  0
    1.4289    3.3000    0.0000 P   0  0  0  0  0  0  0  0  0  0  0  0
    1.4289    4.1250    0.0000 O   0  0  0  0  0  0  0  0  0  0  0  0
    2.2539    3.3000    0.0000 O   0  0  0  0  0  0  0  0  0  0  0  0
    0.6039    3.3000    0.0000 O   0  0  0  0  0  0  0  0  0  0  0  0
    1.4289    0.8250    0.0000 O   0  0  0  0  0  0  0  0  0  0  0  0
  2  1  1  1  0  0  0
  2  3  1  0  0  0  0
  3  4  1  0  0  0  0
  4  5  1  1  0  0  0
  4  6  1  0  0  0  0
  6  7  1  6  0  0  0
  6  8  1  0  0  0  0
  8  9  1  1  0  0  0
  9 10  1  0  0  0  0
 10 11  1  0  0  0  0
 11 12  1  0  0  0  0
 11 13  1  0  0  0  0
 11 14  2  0  0  0  0
  8 15  1  0  0  0  0
  2 15  1  0  0  0  0
M  END
> <DRUGBANK_ID>
DB02604

> <DRUG_GROUPS>
experimental

> <GENERIC_NAME>
2-Deoxy-Glucose-6-Phosphate

> <CHEMICAL_FORMULA>
C6H13O8P

> <MOLECULAR_WEIGHT>
244.1364

> <EXACT_MASS>
244.034803904

> <IUPAC_NAME>
{[(2R,3S,4R,6R)-3,4,6-trihydroxyoxan-2-yl]methoxy}phosphonic acid

> <IUPAC_TRADITIONAL_NAME>
[(2R,3S,4R,6R)-3,4,6-trihydroxyoxan-2-yl]methoxyphosphonic acid

> <INCHI_IDENTIFIER>
InChI=1S/C6H13O8P/c7-3-1-5(8)14-4(6(3)9)2-13-15(10,11)12/h3-9H,1-2H2,(H2,10,11,12)/t3-,4-,5-,6+/m1/s1

> <INCHI_KEY>
InChIKey=UQJFZAAGZAYVKZ-KAZBKCHUSA-N

> <SMILES>
O[C@H]1C[C@@H](O)[C@H](O)[C@@H](COP(O)(O)=O)O1

> <JCHEM_ACCEPTOR_COUNT>
7

> <JCHEM_DONOR_COUNT>
5

> <JCHEM_ACIDIC_PKA>
1.22

> <JCHEM_BASIC_PKA>
-3.3

> <JCHEM_PHYSIOLOGICAL_CHARGE>
-2

> <ALOGPS_LOGP>
-2.1

> <JCHEM_LOGP>
-2.2

> <ALOGPS_LOGS>
-0.86

> <JCHEM_POLARIZABILITY>
20.16

> <JCHEM_POLAR_SURFACE_AREA>
136.68

> <JCHEM_REFRACTIVITY>
45.29

> <JCHEM_ROTATABLE_BOND_COUNT>
3

> <ALOGPS_SOLUBILITY>
3.34e+01 g/l __ 

$$$$
