
  Mrv0541 02231216332D          

 11 12  0  0  1  0            999 V2000
    3.5724    2.8875    0.0000 C   0  0  0  0  0  0  0  0  0  0  0  0
    3.5724    2.0625    0.0000 C   0  0  0  0  0  0  0  0  0  0  0  0
    4.2868    1.6500    0.0000 C   0  0  0  0  0  0  0  0  0  0  0  0
    2.8579    1.6500    0.0000 C   0  0  2  0  0  0  0  0  0  0  0  0
    2.8579    0.8250    0.0000 C   0  0  0  0  0  0  0  0  0  0  0  0
    2.1434    0.4125    0.0000 C   0  0  0  0  0  0  0  0  0  0  0  0
    1.4289    0.8250    0.0000 C   0  0  1  0  0  0  0  0  0  0  0  0
    1.0164    0.1105    0.0000 C   0  0  0  0  0  0  0  0  0  0  0  0
    0.7145    1.2375    0.0000 O   0  0  0  0  0  0  0  0  0  0  0  0
    1.4289    1.6500    0.0000 C   0  0  1  0  0  0  0  0  0  0  0  0
    2.1434    2.0625    0.0000 C   0  0  0  0  0  0  0  0  0  0  0  0
  1  2  1  0  0  0  0
  2  3  2  0  0  0  0
  4  2  1  6  0  0  0
  4  5  1  0  0  0  0
  5  6  1  0  0  0  0
  6  7  1  0  0  0  0
  7  8  1  6  0  0  0
  7  9  1  0  0  0  0
 10  9  1  1  0  0  0
  7 10  1  0  0  0  0
 10 11  1  0  0  0  0
  4 11  1  0  0  0  0
M  END
> <DRUGBANK_ID>
DB02924

> <DRUG_GROUPS>
experimental

> <GENERIC_NAME>
D-Limonene 1,2-Epoxide

> <CHEMICAL_FORMULA>
C10H16O

> <MOLECULAR_WEIGHT>
152.2334

> <EXACT_MASS>
152.120115134

> <IUPAC_NAME>
(1R,4R,6S)-1-methyl-4-(prop-1-en-2-yl)-7-oxabicyclo[4.1.0]heptane

> <IUPAC_TRADITIONAL_NAME>
D-limonene 1,2-epoxide

> <INCHI_IDENTIFIER>
InChI=1S/C10H16O/c1-7(2)8-4-5-10(3)9(6-8)11-10/h8-9H,1,4-6H2,2-3H3/t8-,9+,10-/m1/s1

> <INCHI_KEY>
InChIKey=CCEFMUBVSUDRLG-KXUCPTDWSA-N

> <SMILES>
CC(=C)[C@@H]1CC[C@@]2(C)O[C@H]2C1

> <JCHEM_ACCEPTOR_COUNT>
1

> <JCHEM_DONOR_COUNT>
0

> <JCHEM_BASIC_PKA>
-4.2

> <JCHEM_PHYSIOLOGICAL_CHARGE>
0

> <ALOGPS_LOGP>
2.81

> <JCHEM_LOGP>
2.32

> <ALOGPS_LOGS>
-2.6

> <JCHEM_POLARIZABILITY>
18.19

> <JCHEM_POLAR_SURFACE_AREA>
12.53

> <JCHEM_REFRACTIVITY>
45.24

> <JCHEM_ROTATABLE_BOND_COUNT>
1

> <ALOGPS_SOLUBILITY>
3.51e-01 g/l __ 

$$$$
