
  Mrv0541 02231215562D          

 23 23  0  0  1  0            999 V2000
   -2.0651   -1.9074    0.0000 N   0  0  0  0  0  0  0  0  0  0  0  0
   -2.0651   -1.0824    0.0000 C   0  0  1  0  0  0  0  0  0  0  0  0
   -2.7795   -0.6699    0.0000 C   0  0  0  0  0  0  0  0  0  0  0  0
   -3.4940   -1.0824    0.0000 C   0  0  0  0  0  0  0  0  0  0  0  0
   -4.2085   -0.6699    0.0000 C   0  0  0  0  0  0  0  0  0  0  0  0
   -4.9230   -1.0824    0.0000 N   0  0  0  0  0  0  0  0  0  0  0  0
   -5.6374   -0.6699    0.0000 C   0  0  0  0  0  0  0  0  0  0  0  0
   -5.6374    0.1551    0.0000 N   0  0  0  0  0  0  0  0  0  0  0  0
   -6.3519   -1.0824    0.0000 N   0  0  0  0  0  0  0  0  0  0  0  0
   -7.0664   -0.6699    0.0000 N   0  3  0  0  0  0  0  0  0  0  0  0
   -7.7808   -1.0824    0.0000 O   0  5  0  0  0  0  0  0  0  0  0  0
   -7.0664    0.1551    0.0000 O   0  0  0  0  0  0  0  0  0  0  0  0
   -1.3506   -0.6699    0.0000 C   0  0  0  0  0  0  0  0  0  0  0  0
   -1.3506    0.1551    0.0000 O   0  0  0  0  0  0  0  0  0  0  0  0
   -0.6361   -1.0824    0.0000 N   0  0  0  0  0  0  0  0  0  0  0  0
    0.0783   -0.6699    0.0000 C   0  0  1  0  0  0  0  0  0  0  0  0
    0.1646    0.1506    0.0000 C   0  0  0  0  0  0  0  0  0  0  0  0
    0.9716    0.3221    0.0000 N   0  0  0  0  0  0  0  0  0  0  0  0
    1.3841   -0.3923    0.0000 C   0  0  1  0  0  0  0  0  0  0  0  0
    0.8320   -1.0054    0.0000 C   0  0  0  0  0  0  0  0  0  0  0  0
    2.2045   -0.4786    0.0000 C   0  0  0  0  0  0  0  0  0  0  0  0
    2.6895    0.1889    0.0000 N   0  0  0  0  0  0  0  0  0  0  0  0
    2.5401   -1.2323    0.0000 O   0  0  0  0  0  0  0  0  0  0  0  0
  2  1  1  1  0  0  0
  2  3  1  0  0  0  0
  3  4  1  0  0  0  0
  4  5  1  0  0  0  0
  5  6  1  0  0  0  0
  6  7  1  0  0  0  0
  7  8  2  0  0  0  0
  7  9  1  0  0  0  0
  9 10  1  0  0  0  0
 10 11  1  0  0  0  0
 10 12  2  0  0  0  0
  2 13  1  0  0  0  0
 13 14  2  0  0  0  0
 13 15  1  0  0  0  0
 16 15  1  1  0  0  0
 16 17  1  0  0  0  0
 17 18  1  0  0  0  0
 18 19  1  0  0  0  0
 19 20  1  0  0  0  0
 16 20  1  0  0  0  0
 19 21  1  6  0  0  0
 21 22  1  0  0  0  0
 21 23  2  0  0  0  0
M  END
> <DRUGBANK_ID>
DB02077

> <DRUG_GROUPS>
experimental

> <GENERIC_NAME>
L-N(Omega)-Nitroarginine-(4r)-Amino-L-Proline Amide

> <CHEMICAL_FORMULA>
C11H22N8O4

> <MOLECULAR_WEIGHT>
330.3436

> <EXACT_MASS>
330.176401232

> <IUPAC_NAME>
(2S,4R)-4-[(2S)-2-amino-5-(1-nitrocarbamimidamido)pentanamido]pyrrolidine-2-carboxamide

> <IUPAC_TRADITIONAL_NAME>
(2S,4R)-4-[(2S)-2-amino-5-(1-nitrocarbamimidamido)pentanamido]pyrrolidine-2-carboxamide

> <INCHI_IDENTIFIER>
InChI=1S/C11H22N8O4/c12-7(2-1-3-15-11(14)18-19(22)23)10(21)17-6-4-8(9(13)20)16-5-6/h6-8,16H,1-5,12H2,(H2,13,20)(H,17,21)(H3,14,15,18)/t6-,7+,8+/m1/s1

> <INCHI_KEY>
InChIKey=IUFRDGFKAVLPFZ-CSMHCCOUSA-N

> <SMILES>
N[C@@H](CCCNC(=N)N[N+]([O-])=O)C(=O)N[C@H]1CN[C@@H](C1)C(N)=O

> <JCHEM_ACCEPTOR_COUNT>
9

> <JCHEM_DONOR_COUNT>
7

> <JCHEM_ACIDIC_PKA>
10.06

> <JCHEM_BASIC_PKA>
8.96

> <JCHEM_PHYSIOLOGICAL_CHARGE>
2

> <ALOGPS_LOGP>
-2

> <JCHEM_LOGP>
-3.5

> <ALOGPS_LOGS>
-3

> <JCHEM_POLARIZABILITY>
32.54

> <JCHEM_POLAR_SURFACE_AREA>
203.97

> <JCHEM_REFRACTIVITY>
90.57

> <JCHEM_ROTATABLE_BOND_COUNT>
8

> <ALOGPS_SOLUBILITY>
2.97e-01 g/l __ 

$$$$
