
  Mrv0541 02231216372D          

 13 13  0  0  1  0            999 V2000
    1.5783    2.2433    0.0000 N   0  0  0  0  0  0  0  0  0  0  0  0
    2.1913    1.6913    0.0000 C   0  0  1  0  0  0  0  0  0  0  0  0
    2.0198    0.8843    0.0000 C   0  0  0  0  0  0  0  0  0  0  0  0
    1.2352    0.6294    0.0000 N   0  0  0  0  0  0  0  0  0  0  0  0
    0.9803   -0.1553    0.0000 O   0  0  0  0  0  0  0  0  0  0  0  0
    0.1553   -0.1553    0.0000 C   0  0  0  0  0  0  0  0  0  0  0  0
   -0.3297   -0.8227    0.0000 O   0  0  0  0  0  0  0  0  0  0  0  0
   -0.0997    0.6294    0.0000 N   0  0  0  0  0  0  0  0  0  0  0  0
    0.5678    1.1143    0.0000 C   0  0  0  0  0  0  0  0  0  0  0  0
    0.5678    1.9393    0.0000 O   0  0  0  0  0  0  0  0  0  0  0  0
    2.9760    1.9462    0.0000 C   0  0  0  0  0  0  0  0  0  0  0  0
    3.1475    2.7532    0.0000 O   0  0  0  0  0  0  0  0  0  0  0  0
    3.5891    1.3942    0.0000 O   0  0  0  0  0  0  0  0  0  0  0  0
  2  1  1  6  0  0  0
  2  3  1  0  0  0  0
  3  4  1  0  0  0  0
  4  5  1  0  0  0  0
  5  6  1  0  0  0  0
  6  7  2  0  0  0  0
  6  8  1  0  0  0  0
  8  9  1  0  0  0  0
  4  9  1  0  0  0  0
  9 10  2  0  0  0  0
  2 11  1  0  0  0  0
 11 12  1  0  0  0  0
 11 13  2  0  0  0  0
M  END
> <DRUGBANK_ID>
DB02999

> <DRUG_GROUPS>
experimental

> <GENERIC_NAME>
Quisqualate

> <CHEMICAL_FORMULA>
C5H7N3O5

> <MOLECULAR_WEIGHT>
189.1262

> <EXACT_MASS>
189.038570349

> <IUPAC_NAME>
(2S)-2-amino-3-(3,5-dioxo-1,2,4-oxadiazolidin-2-yl)propanoic acid

> <IUPAC_TRADITIONAL_NAME>
quisqualate

> <INCHI_IDENTIFIER>
InChI=1S/C5H7N3O5/c6-2(3(9)10)1-8-4(11)7-5(12)13-8/h2H,1,6H2,(H,9,10)(H,7,11,12)/t2-/m0/s1

> <INCHI_KEY>
InChIKey=ASNFTDCKZKHJSW-REOHCLBHSA-N

> <SMILES>
N[C@@H](CN1OC(=O)NC1=O)C(O)=O

> <JCHEM_ACCEPTOR_COUNT>
5

> <JCHEM_DONOR_COUNT>
3

> <JCHEM_ACIDIC_PKA>
1.46

> <JCHEM_BASIC_PKA>
8.56

> <JCHEM_PHYSIOLOGICAL_CHARGE>
-1

> <ALOGPS_LOGP>
-2.7

> <JCHEM_LOGP>
-3.7

> <ALOGPS_LOGS>
-0.55

> <JCHEM_POLARIZABILITY>
15.39

> <JCHEM_POLAR_SURFACE_AREA>
121.96

> <JCHEM_REFRACTIVITY>
36.51

> <JCHEM_ROTATABLE_BOND_COUNT>
3

> <ALOGPS_SOLUBILITY>
5.36e+01 g/l __ 

$$$$
