
  Mrv0541 02231216222D          

 41 44  0  0  1  0            999 V2000
   -1.6786   -3.0246    0.0000 C   0  0  0  0  0  0  0  0  0  0  0  0
   -1.8501   -2.2177    0.0000 C   0  0  0  0  0  0  0  0  0  0  0  0
   -2.6347   -1.9627    0.0000 C   0  0  0  0  0  0  0  0  0  0  0  0
   -2.8063   -1.1557    0.0000 C   0  0  0  0  0  0  0  0  0  0  0  0
   -2.1932   -0.6037    0.0000 C   0  0  0  0  0  0  0  0  0  0  0  0
   -1.4086   -0.8586    0.0000 C   0  0  0  0  0  0  0  0  0  0  0  0
   -1.2370   -1.6656    0.0000 C   0  0  0  0  0  0  0  0  0  0  0  0
   -0.4524   -1.9206    0.0000 C   0  0  0  0  0  0  0  0  0  0  0  0
   -0.2809   -2.7275    0.0000 N   0  0  0  0  0  0  0  0  0  0  0  0
    0.5037   -2.9825    0.0000 C   0  0  0  0  0  0  0  0  0  0  0  0
    1.1168   -2.4304    0.0000 O   0  0  0  0  0  0  0  0  0  0  0  0
    0.6753   -3.7894    0.0000 C   0  0  1  0  0  0  0  0  0  0  0  0
    1.4289   -4.1250    0.0000 N   0  0  0  0  0  0  0  0  0  0  0  0
    1.3427   -4.9455    0.0000 C   0  0  0  0  0  0  0  0  0  0  0  0
    0.5357   -5.1170    0.0000 S   0  0  0  0  0  0  0  0  0  0  0  0
    0.1232   -4.4025    0.0000 C   0  0  0  0  0  0  0  0  0  0  0  0
   -0.6339   -4.7302    0.0000 C   0  0  0  0  0  0  0  0  0  0  0  0
   -0.5492   -3.9246    0.0000 C   0  0  0  0  0  0  0  0  0  0  0  0
    2.1434   -3.7125    0.0000 C   0  0  0  0  0  0  0  0  0  0  0  0
    1.6585   -3.0451    0.0000 O   0  0  0  0  0  0  0  0  0  0  0  0
    2.8579   -4.1250    0.0000 C   0  0  1  0  0  0  0  0  0  0  0  0
    2.8579   -4.9500    0.0000 O   0  0  0  0  0  0  0  0  0  0  0  0
    3.5724   -3.7125    0.0000 C   0  0  1  0  0  0  0  0  0  0  0  0
    3.5724   -2.8875    0.0000 C   0  0  0  0  0  0  0  0  0  0  0  0
    2.8579   -2.4750    0.0000 C   0  0  0  0  0  0  0  0  0  0  0  0
    2.1434   -2.8875    0.0000 C   0  0  0  0  0  0  0  0  0  0  0  0
    1.4289   -2.4750    0.0000 C   0  0  0  0  0  0  0  0  0  0  0  0
    1.4289   -1.6500    0.0000 C   0  0  0  0  0  0  0  0  0  0  0  0
    2.1434   -1.2375    0.0000 C   0  0  0  0  0  0  0  0  0  0  0  0
    2.8579   -1.6500    0.0000 C   0  0  0  0  0  0  0  0  0  0  0  0
    4.2868   -4.1250    0.0000 N   0  0  0  0  0  0  0  0  0  0  0  0
    5.0013   -3.7125    0.0000 C   0  0  0  0  0  0  0  0  0  0  0  0
    5.0013   -2.8875    0.0000 O   0  0  0  0  0  0  0  0  0  0  0  0
    5.7158   -4.1250    0.0000 C   0  0  0  0  0  0  0  0  0  0  0  0
    6.4302   -3.7125    0.0000 C   0  0  0  0  0  0  0  0  0  0  0  0
    7.1447   -4.1250    0.0000 C   0  0  0  0  0  0  0  0  0  0  0  0
    7.1447   -4.9500    0.0000 C   0  0  0  0  0  0  0  0  0  0  0  0
    6.4302   -5.3625    0.0000 C   0  0  0  0  0  0  0  0  0  0  0  0
    6.4302   -6.1875    0.0000 O   0  0  0  0  0  0  0  0  0  0  0  0
    5.7158   -4.9500    0.0000 C   0  0  0  0  0  0  0  0  0  0  0  0
    5.0013   -5.3625    0.0000 C   0  0  0  0  0  0  0  0  0  0  0  0
  1  2  1  0  0  0  0
  2  3  2  0  0  0  0
  3  4  1  0  0  0  0
  4  5  2  0  0  0  0
  5  6  1  0  0  0  0
  6  7  2  0  0  0  0
  2  7  1  0  0  0  0
  7  8  1  0  0  0  0
  8  9  1  0  0  0  0
  9 10  1  0  0  0  0
 10 11  2  0  0  0  0
 12 10  1  1  0  0  0
 12 13  1  0  0  0  0
 13 14  1  0  0  0  0
 14 15  1  0  0  0  0
 15 16  1  0  0  0  0
 12 16  1  0  0  0  0
 16 17  1  0  0  0  0
 16 18  1  0  0  0  0
 13 19  1  0  0  0  0
 19 20  2  0  0  0  0
 19 21  1  0  0  0  0
 21 22  1  6  0  0  0
 21 23  1  0  0  0  0
 23 24  1  0  0  0  0
 24 25  1  0  0  0  0
 25 26  2  0  0  0  0
 26 27  1  0  0  0  0
 27 28  2  0  0  0  0
 28 29  1  0  0  0  0
 29 30  2  0  0  0  0
 25 30  1  0  0  0  0
 23 31  1  1  0  0  0
 31 32  1  0  0  0  0
 32 33  2  0  0  0  0
 32 34  1  0  0  0  0
 34 35  2  0  0  0  0
 35 36  1  0  0  0  0
 36 37  2  0  0  0  0
 37 38  1  0  0  0  0
 38 39  1  0  0  0  0
 38 40  2  0  0  0  0
 34 40  1  0  0  0  0
 40 41  1  0  0  0  0
M  END
> <DRUGBANK_ID>
DB02668

> <DRUG_GROUPS>
experimental

> <GENERIC_NAME>
Je-2147, Ag1776, Kni-764

> <CHEMICAL_FORMULA>
C32H37N3O5S

> <MOLECULAR_WEIGHT>
575.718

> <EXACT_MASS>
575.245391999

> <IUPAC_NAME>
(4R)-3-[(2S,3R)-2-hydroxy-3-[(3-hydroxy-2-methylphenyl)formamido]-4-phenylbutanoyl]-5,5-dimethyl-N-[(2-methylphenyl)methyl]-1,3-thiazolidine-4-carboxamide

> <IUPAC_TRADITIONAL_NAME>
(4R)-3-[(2S,3R)-2-hydroxy-3-[(3-hydroxy-2-methylphenyl)formamido]-4-phenylbutanoyl]-5,5-dimethyl-N-[(2-methylphenyl)methyl]-1,3-thiazolidine-4-carboxamide

> <INCHI_IDENTIFIER>
InChI=1S/C32H37N3O5S/c1-20-11-8-9-14-23(20)18-33-30(39)28-32(3,4)41-19-35(28)31(40)27(37)25(17-22-12-6-5-7-13-22)34-29(38)24-15-10-16-26(36)21(24)2/h5-16,25,27-28,36-37H,17-19H2,1-4H3,(H,33,39)(H,34,38)/t25-,27+,28-/m1/s1

> <INCHI_KEY>
InChIKey=CUFQBQOBLVLKRF-FPNNDXFKSA-N

> <SMILES>
CC1=CC=CC=C1CNC(=O)[C@H]1N(CSC1(C)C)C(=O)[C@@H](O)[C@@H](CC1=CC=CC=C1)NC(=O)C1=CC=CC(O)=C1C

> <JCHEM_ACCEPTOR_COUNT>
5

> <JCHEM_DONOR_COUNT>
4

> <JCHEM_ACIDIC_PKA>
9.28

> <JCHEM_BASIC_PKA>
-0.54

> <JCHEM_PHYSIOLOGICAL_CHARGE>
0

> <ALOGPS_LOGP>
3.64

> <JCHEM_LOGP>
4.23

> <ALOGPS_LOGS>
-5.5

> <JCHEM_POLARIZABILITY>
62.16

> <JCHEM_POLAR_SURFACE_AREA>
118.97

> <JCHEM_REFRACTIVITY>
161.34

> <JCHEM_ROTATABLE_BOND_COUNT>
9

> <ALOGPS_SOLUBILITY>
2.05e-03 g/l __ 

$$$$
