
  Mrv0541 02231216022D          

 44 51  0  0  1  0            999 V2000
   -4.1962   -0.4311    0.0000 C    0  0  0  0  0  0  0  0  0  0  0  0
   -3.4660   -0.8150    0.0000 C    0  0  0  0  0  0  0  0  0  0  0  0
   -2.7684   -0.3746    0.0000 C    0  0  0  0  0  0  0  0  0  0  0  0
   -2.7146    0.4486    0.0000 C    0  0  0  0  0  0  0  0  0  0  0  0
   -3.3490    0.9760    0.0000 C    0  0  0  0  0  0  0  0  0  0  0  0
   -1.9151    0.6519    0.0000 C    0  0  0  0  0  0  0  0  0  0  0  0
   -1.3945    1.5893    0.0000 C    0  0  0  0  0  0  0  0  0  0  0  0
   -0.6802    2.0020    0.0000 C    0  0  0  0  0  0  0  0  0  0  0  0
   -0.3746    2.7684    0.0000 C    0  0  0  0  0  0  0  0  0  0  0  0
   -0.8150    3.4660    0.0000 C    0  0  0  0  0  0  0  0  0  0  0  0
   -0.4311    4.1962    0.0000 C    0  0  0  0  0  0  0  0  0  0  0  0
    0.4486    2.7146    0.0000 C    0  0  0  0  0  0  0  0  0  0  0  0
    0.9760    3.3490    0.0000 C    0  0  0  0  0  0  0  0  0  0  0  0
    0.6519    1.9151    0.0000 C    0  0  0  0  0  0  0  0  0  0  0  0
    1.5893    1.3945    0.0000 C    0  0  0  0  0  0  0  0  0  0  0  0
    2.0020    0.6802    0.0000 C    0  0  0  0  0  0  0  0  0  0  0  0
    2.7684    0.3746    0.0000 C    0  0  0  0  0  0  0  0  0  0  0  0
    3.4660    0.8150    0.0000 C    0  0  0  0  0  0  0  0  0  0  0  0
    2.7146   -0.4486    0.0000 C    0  0  0  0  0  0  0  0  0  0  0  0
    3.3490   -0.9760    0.0000 C    0  0  0  0  0  0  0  0  0  0  0  0
    4.1230   -0.6903    0.0000 C    0  0  0  0  0  0  0  0  0  0  0  0
    4.7574   -1.2176    0.0000 C    0  0  0  0  0  0  0  0  0  0  0  0
    5.5313   -0.9319    0.0000 O    0  0  0  0  0  0  0  0  0  0  0  0
    4.6179   -2.0308    0.0000 O    0  0  0  0  0  0  0  0  0  0  0  0
    1.9151   -0.6519    0.0000 C    0  0  0  0  0  0  0  0  0  0  0  0
    1.4746    0.0457    0.0000 N    0  3  0  0  0  0  0  0  0  0  0  0
    0.0000    0.0000    0.0000 Cu   0  0  2  0  0  0  0  0  0  0  0  0
    0.0457   -1.4746    0.0000 N    0  0  0  0  0  0  0  0  0  0  0  0
   -0.6519   -1.9151    0.0000 C    0  0  0  0  0  0  0  0  0  0  0  0
   -1.5893   -1.3945    0.0000 C    0  0  0  0  0  0  0  0  0  0  0  0
   -2.0020   -0.6802    0.0000 C    0  0  0  0  0  0  0  0  0  0  0  0
   -1.4746   -0.0457    0.0000 N    0  3  0  0  0  0  0  0  0  0  0  0
   -0.4486   -2.7146    0.0000 C    0  0  0  0  0  0  0  0  0  0  0  0
   -0.9760   -3.3490    0.0000 C    0  0  0  0  0  0  0  0  0  0  0  0
    0.3746   -2.7684    0.0000 C    0  0  0  0  0  0  0  0  0  0  0  0
    0.8150   -3.4660    0.0000 C    0  0  0  0  0  0  0  0  0  0  0  0
    1.6394   -3.4334    0.0000 C    0  0  0  0  0  0  0  0  0  0  0  0
    2.0233   -2.7032    0.0000 C    0  0  0  0  0  0  0  0  0  0  0  0
    1.5829   -2.0056    0.0000 O    0  0  0  0  0  0  0  0  0  0  0  0
    2.8477   -2.6706    0.0000 O    0  0  0  0  0  0  0  0  0  0  0  0
    0.6802   -2.0020    0.0000 C    0  0  0  0  0  0  0  0  0  0  0  0
    1.3945   -1.5893    0.0000 C    0  0  0  0  0  0  0  0  0  0  0  0
   -0.0457    1.4746    0.0000 N    0  3  2  0  0  0  0  0  0  0  0  0
   -0.7871    1.1127    0.0000 C    0  0  0  0  0  0  0  0  0  0  0  0
  1  2  1  0  0  0  0
  2  3  1  0  0  0  0
  3  4  2  0  0  0  0
  4  5  1  0  0  0  0
  4  6  1  0  0  0  0
  6  7  2  0  0  0  0
  7  8  1  0  0  0  0
  8  9  2  0  0  0  0
  9 10  1  0  0  0  0
 10 11  1  0  0  0  0
  9 12  1  0  0  0  0
 12 13  1  0  0  0  0
 12 14  2  0  0  0  0
 14 15  1  0  0  0  0
 15 16  2  0  0  0  0
 16 17  1  0  0  0  0
 17 18  1  0  0  0  0
 17 19  2  0  0  0  0
 19 20  1  0  0  0  0
 20 21  1  0  0  0  0
 21 22  1  0  0  0  0
 22 23  1  0  0  0  0
 22 24  2  0  0  0  0
 19 25  1  0  0  0  0
 25 26  2  0  0  0  0
 16 26  1  0  0  0  0
 27 26  1  6  0  0  0
 27 28  1  0  0  0  0
 28 29  1  0  0  0  0
 29 30  2  0  0  0  0
 30 31  1  0  0  0  0
  3 31  1  0  0  0  0
 31 32  2  0  0  0  0
  6 32  1  0  0  0  0
 27 32  1  0  0  0  0
 29 33  1  0  0  0  0
 33 34  1  0  0  0  0
 33 35  2  0  0  0  0
 35 36  1  0  0  0  0
 36 37  1  0  0  0  0
 37 38  1  0  0  0  0
 38 39  1  0  0  0  0
 38 40  2  0  0  0  0
 35 41  1  0  0  0  0
 28 41  1  0  0  0  0
 41 42  2  0  0  0  0
 25 42  1  0  0  0  0
 27 43  1  0  0  0  0
  8 43  1  0  0  0  0
 14 43  1  0  0  0  0
 43 44  1  1  0  0  0
M  END
> <DRUGBANK_ID>
DB02188

> <DRUG_GROUPS>
experimental

> <GENERIC_NAME>
N-Methylmesoporphyrin Containing Copper

> <CHEMICAL_FORMULA>
C35H39CuN4O4

> <MOLECULAR_WEIGHT>
643.255

> <EXACT_MASS>
642.226731835

> <IUPAC_NAME>
(1R,22S)-5,9-bis(2-carboxyethyl)-14,19-diethyl-4,10,15,20,22-pentamethyl-2$l^{5},22,23$l^{5},25-tetraaza-1-cupraoctacyclo[11.9.1.1^{1,8}.1^{3,21}.0^{2,6}.0^{16,23}.0^{18,22}.0^{11,25}]pentacosa-2(6),3(24),4,7,9,11,13(23),14,16,18,20-undecaen-22-ium-2,23-bis(ylium)

> <IUPAC_TRADITIONAL_NAME>
(1R,22S)-5,9-bis(2-carboxyethyl)-14,19-diethyl-4,10,15,20,22-pentamethyl-2$l^{5},22,23$l^{5},25-tetraaza-1-cupraoctacyclo[11.9.1.1^{1,8}.1^{3,21}.0^{2,6}.0^{16,23}.0^{18,22}.0^{11,25}]pentacosa-2(6),3(24),4,7,9,11,13(23),14,16,18,20-undecaen-22-ium-2,23-bis(ylium)

> <INCHI_IDENTIFIER>
InChI=1S/C35H40N4O4.Cu/c1-8-22-18(3)28-17-33-23(9-2)21(6)32(39(33)7)16-27-20(5)25(11-13-35(42)43)31(38-27)15-30-24(10-12-34(40)41)19(4)26(36-30)14-29(22)37-28;/h14-17H,8-13H2,1-7H3,(H3,36,37,38,40,41,42,43);/q;+4/p-1/b26-14-,27-16-,28-17-,29-14-,30-15-,31-15-,32-16-,33-17-;

> <INCHI_KEY>
InChIKey=RDSHXUIGVQAIDP-ZHZUXMKXSA-M

> <SMILES>
CCC1=C(C)C2=CC3=C(CC)C(C)=C4C=C5C(C)=C(CCC(O)=O)C6=[N+]5[Cu@@]5(N7C(=CC1=[N+]25)C(C)=C(CCC(O)=O)C7=C6)[N@+]34C

> <JCHEM_ACCEPTOR_COUNT>
4

> <JCHEM_DONOR_COUNT>
2

> <JCHEM_ACIDIC_PKA>
2.87

> <JCHEM_PHYSIOLOGICAL_CHARGE>
1

> <ALOGPS_LOGP>
1.03

> <JCHEM_LOGP>
-1.4

> <ALOGPS_LOGS>
-5.9

> <JCHEM_POLARIZABILITY>
70.34

> <JCHEM_POLAR_SURFACE_AREA>
87.29

> <JCHEM_REFRACTIVITY>
184.44

> <JCHEM_ROTATABLE_BOND_COUNT>
8

> <ALOGPS_SOLUBILITY>
9.06e-04 g/l __ 

$$$$
