
  Mrv0541 02231215542D          

  6  5  0  0  0  0            999 V2000
    2.4750   -1.4289    0.0000 Fe   0  0  0  0  0  0  0  0  0  0  0  0
    2.0625   -0.7145    0.0000 O    0  0  0  0  0  0  0  0  0  0  0  0
    1.2375   -0.7145    0.0000 Fe   0  0  0  0  0  0  0  0  0  0  0  0
    0.8250    0.0000    0.0000 N    0  0  0  0  0  0  0  0  0  0  0  0
    0.0000    0.0000    0.0000 N    0  3  0  0  0  0  0  0  0  0  0  0
   -0.8250    0.0000    0.0000 N    0  5  0  0  0  0  0  0  0  0  0  0
  1  2  1  0  0  0  0
  2  3  1  0  0  0  0
  3  4  1  0  0  0  0
  4  5  2  0  0  0  0
  5  6  2  0  0  0  0
M  END
> <DRUGBANK_ID>
DB02013

> <DRUG_GROUPS>
experimental

> <GENERIC_NAME>
Monoazido-Mu-Oxo-Diiron

> <CHEMICAL_FORMULA>
Fe2N3O

> <MOLECULAR_WEIGHT>
169.71

> <EXACT_MASS>
169.874020903

> <IUPAC_NAME>
azido(ferriooxy)iron

> <IUPAC_TRADITIONAL_NAME>
monoazido-mu-oxo-diiron

> <INCHI_IDENTIFIER>
InChI=1S/2Fe.N3.O/c;;1-3-2;/q;+1;-1;

> <INCHI_KEY>
InChIKey=GTUZFHRZTDZJHZ-UHFFFAOYSA-N

> <SMILES>
[Fe]O[Fe]N=[N+]=[N-]

> <JCHEM_ACCEPTOR_COUNT>
3

> <JCHEM_DONOR_COUNT>
0

> <JCHEM_BASIC_PKA>
-4.6

> <JCHEM_PHYSIOLOGICAL_CHARGE>
0

> <JCHEM_LOGP>
1.79

> <JCHEM_POLARIZABILITY>
7.93

> <JCHEM_POLAR_SURFACE_AREA>
38.66

> <JCHEM_REFRACTIVITY>
12.22

> <JCHEM_ROTATABLE_BOND_COUNT>
2 __ 

$$$$
