
  Mrv0541 02231216202D          

  9  8  0  0  0  0            999 V2000
   -0.1914    0.7145    0.0000 O   0  0  0  0  0  0  0  0  0  0  0  0
    0.5230    1.1270    0.0000 C   0  0  0  0  0  0  0  0  0  0  0  0
    0.5230    1.9520    0.0000 O   0  0  0  0  0  0  0  0  0  0  0  0
    1.2375    0.7145    0.0000 C   0  0  0  0  0  0  0  0  0  0  0  0
    1.2375   -0.1105    0.0000 O   0  0  0  0  0  0  0  0  0  0  0  0
    1.9520    1.1270    0.0000 C   0  0  0  0  0  0  0  0  0  0  0  0
    2.6664    0.7145    0.0000 C   0  0  0  0  0  0  0  0  0  0  0  0
    3.3809    1.1270    0.0000 O   0  5  0  0  0  0  0  0  0  0  0  0
    2.6664   -0.1105    0.0000 O   0  0  0  0  0  0  0  0  0  0  0  0
  1  2  1  0  0  0  0
  2  3  2  0  0  0  0
  2  4  1  0  0  0  0
  4  5  2  0  0  0  0
  4  6  1  0  0  0  0
  6  7  1  0  0  0  0
  7  8  1  0  0  0  0
  7  9  2  0  0  0  0
M  END
> <DRUGBANK_ID>
DB02637

> <DRUG_GROUPS>
experimental

> <GENERIC_NAME>
Oxaloacetate Ion

> <CHEMICAL_FORMULA>
C4H3O5

> <MOLECULAR_WEIGHT>
131.0636

> <EXACT_MASS>
130.998048206

> <IUPAC_NAME>
3-carboxy-3-oxopropanoate

> <IUPAC_TRADITIONAL_NAME>
oxaloacetate ion

> <INCHI_IDENTIFIER>
InChI=1S/C4H4O5/c5-2(4(8)9)1-3(6)7/h1H2,(H,6,7)(H,8,9)/p-1

> <INCHI_KEY>
InChIKey=KHPXUQMNIQBQEV-UHFFFAOYSA-M

> <SMILES>
OC(=O)C(=O)CC([O-])=O

> <JCHEM_ACCEPTOR_COUNT>
5

> <JCHEM_DONOR_COUNT>
1

> <JCHEM_ACIDIC_PKA>
2.41

> <JCHEM_BASIC_PKA>
-9.9

> <JCHEM_PHYSIOLOGICAL_CHARGE>
-2

> <ALOGPS_LOGP>
-0.53

> <JCHEM_LOGP>
-0.042

> <ALOGPS_LOGS>
-0.44

> <JCHEM_POLARIZABILITY>
9.68

> <JCHEM_POLAR_SURFACE_AREA>
94.5

> <JCHEM_REFRACTIVITY>
35.17

> <JCHEM_ROTATABLE_BOND_COUNT>
3

> <ALOGPS_SOLUBILITY>
5.42e+01 g/l __ 

$$$$
