FR2
  Mrv0541 02231215572D          

 20 21  0  0  0  0            999 V2000
   -1.8298    0.2709    0.0000 C   0  0  0  0  0  0  0  0  0  0  0  0
   -1.0761   -0.0647    0.0000 N   0  0  0  0  0  0  0  0  0  0  0  0
   -1.1623   -0.8852    0.0000 C   0  0  0  0  0  0  0  0  0  0  0  0
   -1.9693   -1.0567    0.0000 N   0  0  0  0  0  0  0  0  0  0  0  0
   -2.3818   -0.3422    0.0000 C   0  0  0  0  0  0  0  0  0  0  0  0
   -3.2023   -0.2560    0.0000 C   0  0  0  0  0  0  0  0  0  0  0  0
   -3.6872   -0.9234    0.0000 O   0  0  0  0  0  0  0  0  0  0  0  0
   -3.5379    0.4977    0.0000 N   0  0  0  0  0  0  0  0  0  0  0  0
   -0.3616    0.3478    0.0000 C   0  0  1  0  0  0  0  0  0  0  0  0
   -0.3616    1.1728    0.0000 C   0  0  0  0  0  0  0  0  0  0  0  0
    0.3528    1.5853    0.0000 O   0  0  0  0  0  0  0  0  0  0  0  0
    0.3528   -0.0647    0.0000 C   0  0  0  0  0  0  0  0  0  0  0  0
    1.0673    0.3478    0.0000 C   0  0  0  0  0  0  0  0  0  0  0  0
    1.7818   -0.0647    0.0000 C   0  0  0  0  0  0  0  0  0  0  0  0
    2.4962    0.3478    0.0000 C   0  0  0  0  0  0  0  0  0  0  0  0
    3.2107   -0.0647    0.0000 C   0  0  0  0  0  0  0  0  0  0  0  0
    3.2107   -0.8897    0.0000 C   0  0  0  0  0  0  0  0  0  0  0  0
    2.4962   -1.3022    0.0000 C   0  0  0  0  0  0  0  0  0  0  0  0
    1.7818   -0.8897    0.0000 C   0  0  0  0  0  0  0  0  0  0  0  0
   -0.8673    0.6398    0.0000 H   0  0  0  0  0  0  0  0  0  0  0  0
  1  2  1  0  0  0  0
  1  5  2  0  0  0  0
  2  3  1  0  0  0  0
  9  2  1  1  0  0  0
  3  4  2  0  0  0  0
  4  5  1  0  0  0  0
  5  6  1  0  0  0  0
  6  7  2  0  0  0  0
  6  8  1  0  0  0  0
  9 10  1  0  0  0  0
  9 12  1  0  0  0  0
  9 20  1  6  0  0  0
 10 11  1  0  0  0  0
 12 13  1  0  0  0  0
 13 14  1  0  0  0  0
 14 15  2  0  0  0  0
 14 19  1  0  0  0  0
 15 16  1  0  0  0  0
 16 17  2  0  0  0  0
 17 18  1  0  0  0  0
 18 19  2  0  0  0  0
M  END
> <DRUGBANK_ID>
DB02096

> <DRUG_GROUPS>
experimental

> <GENERIC_NAME>
FR221647

> <SYNONYMS>


> <CHEMICAL_FORMULA>
C14H17N3O2

> <MOLECULAR_WEIGHT>
259.3037

> <EXACT_MASS>
259.132076803

> <IUPAC_NAME>
1-[(2R)-1-hydroxy-4-phenylbutan-2-yl]-1H-imidazole-4-carboxamide

> <IUPAC_TRADITIONAL_NAME>
1-[(2R)-1-hydroxy-4-phenylbutan-2-yl]imidazole-4-carboxamide

> <INCHI_IDENTIFIER>
InChI=1S/C14H17N3O2/c15-14(19)13-8-17(10-16-13)12(9-18)7-6-11-4-2-1-3-5-11/h1-5,8,10,12,18H,6-7,9H2,(H2,15,19)/t12-/m1/s1

> <INCHI_KEY>
InChIKey=ZUYUIKKHHBEVHL-GFCCVEGCSA-N

> <SMILES>
[H][C@](CO)(CCC1=CC=CC=C1)N1C=NC(=C1)C(N)=O

> <JCHEM_ACCEPTOR_COUNT>
3

> <JCHEM_DONOR_COUNT>
2

> <JCHEM_ACIDIC_PKA>
13.9

> <JCHEM_BASIC_PKA>
3.53

> <JCHEM_PHYSIOLOGICAL_CHARGE>
0

> <ALOGPS_LOGP>
0.86

> <JCHEM_LOGP>
1.14

> <ALOGPS_LOGS>
-2.6

> <JCHEM_POLARIZABILITY>
27.66

> <JCHEM_POLAR_SURFACE_AREA>
81.14

> <JCHEM_REFRACTIVITY>
72.55

> <JCHEM_ROTATABLE_BOND_COUNT>
6

> <ALOGPS_SOLUBILITY>
6.44e-01 g/l __ 

$$$$
