
  Mrv0541 02231215592D          

 65 73  0  0  1  0            999 V2000
  -17.0580   -8.9544    0.0000 C    0  0  0  0  0  0  0  0  0  0  0  0
  -16.2733   -9.2093    0.0000 C    0  0  0  0  0  0  0  0  0  0  0  0
  -15.6602   -8.6573    0.0000 C    0  0  0  0  0  0  0  0  0  0  0  0
  -15.7465   -7.8368    0.0000 C    0  0  0  0  0  0  0  0  0  0  0  0
  -16.4609   -7.4243    0.0000 C    0  0  0  0  0  0  0  0  0  0  0  0
  -14.9928   -7.5012    0.0000 C    0  0  0  0  0  0  0  0  0  0  0  0
  -14.6383   -6.4893    0.0000 C    0  0  0  0  0  0  0  0  0  0  0  0
  -14.0040   -5.9617    0.0000 C    0  0  0  0  0  0  0  0  0  0  0  0
  -13.8325   -5.1547    0.0000 C    0  0  0  0  0  0  0  0  0  0  0  0
  -14.3845   -4.5416    0.0000 C    0  0  0  0  0  0  0  0  0  0  0  0
  -14.1296   -3.7570    0.0000 C    0  0  0  0  0  0  0  0  0  0  0  0
  -13.0120   -5.0685    0.0000 C    0  0  0  0  0  0  0  0  0  0  0  0
  -12.5995   -4.3540    0.0000 C    0  0  0  0  0  0  0  0  0  0  0  0
  -12.6764   -5.8222    0.0000 C    0  0  0  0  0  0  0  0  0  0  0  0
  -11.6645   -6.1767    0.0000 C    0  0  0  0  0  0  0  0  0  0  0  0
  -11.1369   -6.8110    0.0000 C    0  0  0  0  0  0  0  0  0  0  0  0
  -10.3299   -6.9825    0.0000 C    0  0  1  0  0  0  0  0  0  0  0  0
   -9.7168   -6.4305    0.0000 C    0  0  0  0  0  0  0  0  0  0  0  0
  -10.2437   -7.8030    0.0000 C    0  0  2  0  0  0  0  0  0  0  0  0
   -9.5292   -8.2155    0.0000 C    0  0  0  0  0  0  0  0  0  0  0  0
   -8.8148   -7.8030    0.0000 C    0  0  0  0  0  0  0  0  0  0  0  0
   -8.1003   -8.2155    0.0000 C    0  0  0  0  0  0  0  0  0  0  0  0
   -8.1003   -9.0405    0.0000 O    0  0  0  0  0  0  0  0  0  0  0  0
   -7.3858   -7.8030    0.0000 O    0  0  0  0  0  0  0  0  0  0  0  0
   -6.6714   -8.2155    0.0000 C    0  0  0  0  0  0  0  0  0  0  0  0
   -5.9569   -7.8030    0.0000 C    0  0  0  0  0  0  0  0  0  0  0  0
   -5.2424   -8.2155    0.0000 C    0  0  0  0  0  0  0  0  0  0  0  0
   -5.2424   -9.0405    0.0000 C    0  0  0  0  0  0  0  0  0  0  0  0
   -4.5279   -7.8030    0.0000 C    0  0  0  0  0  0  0  0  0  0  0  0
   -3.8135   -8.2155    0.0000 C    0  0  0  0  0  0  0  0  0  0  0  0
   -3.0990   -7.8030    0.0000 C    0  0  0  0  0  0  0  0  0  0  0  0
   -2.3845   -8.2155    0.0000 C    0  0  2  0  0  0  0  0  0  0  0  0
   -2.3845   -9.0405    0.0000 C    0  0  0  0  0  0  0  0  0  0  0  0
   -1.6701   -7.8030    0.0000 C    0  0  0  0  0  0  0  0  0  0  0  0
   -0.9556   -8.2155    0.0000 C    0  0  0  0  0  0  0  0  0  0  0  0
   -0.2411   -7.8030    0.0000 C    0  0  0  0  0  0  0  0  0  0  0  0
    0.4734   -8.2155    0.0000 C    0  0  2  0  0  0  0  0  0  0  0  0
    0.4734   -9.0405    0.0000 C    0  0  0  0  0  0  0  0  0  0  0  0
    1.1878   -7.8030    0.0000 C    0  0  0  0  0  0  0  0  0  0  0  0
    1.9023   -8.2155    0.0000 C    0  0  0  0  0  0  0  0  0  0  0  0
    2.6168   -7.8030    0.0000 C    0  0  0  0  0  0  0  0  0  0  0  0
    3.3312   -8.2155    0.0000 C    0  0  0  0  0  0  0  0  0  0  0  0
    4.0457   -7.8030    0.0000 C    0  0  0  0  0  0  0  0  0  0  0  0
    3.3312   -9.0405    0.0000 C    0  0  0  0  0  0  0  0  0  0  0  0
  -10.9974   -8.1385    0.0000 C    0  0  0  0  0  0  0  0  0  0  0  0
  -11.5494   -7.5255    0.0000 N    0  3  0  0  0  0  0  0  0  0  0  0
  -13.0502   -7.7860    0.0000 Mg   0  0  0  0  0  0  0  0  0  0  0  0
  -13.2895   -6.3742    0.0000 N    0  0  0  0  0  0  0  0  0  0  0  0
  -12.9210   -9.1300    0.0000 N    0  0  0  0  0  0  0  0  0  0  0  0
  -13.4146   -9.7910    0.0000 C    0  0  0  0  0  0  0  0  0  0  0  0
  -14.3257   -9.4631    0.0000 C    0  0  0  0  0  0  0  0  0  0  0  0
  -14.8533   -8.8288    0.0000 C    0  0  0  0  0  0  0  0  0  0  0  0
  -14.4408   -8.1143    0.0000 N    0  3  0  0  0  0  0  0  0  0  0  0
  -12.9385  -10.4648    0.0000 C    0  0  0  0  0  0  0  0  0  0  0  0
  -13.2037  -11.2460    0.0000 C    0  0  0  0  0  0  0  0  0  0  0  0
  -12.1506  -10.2201    0.0000 C    0  0  0  0  0  0  0  0  0  0  0  0
  -11.3694  -10.4853    0.0000 C    0  0  0  0  0  0  0  0  0  0  0  0
  -11.1247  -11.2732    0.0000 O    0  0  0  0  0  0  0  0  0  0  0  0
  -10.8757   -9.8243    0.0000 C    0  0  1  0  0  0  0  0  0  0  0  0
  -10.0508   -9.8351    0.0000 C    0  0  0  0  0  0  0  0  0  0  0  0
   -9.6477  -10.5549    0.0000 O    0  0  0  0  0  0  0  0  0  0  0  0
   -9.6290   -9.1260    0.0000 O    0  0  0  0  0  0  0  0  0  0  0  0
   -8.8041   -9.1368    0.0000 C    0  0  0  0  0  0  0  0  0  0  0  0
  -11.3519   -9.1505    0.0000 C    0  0  0  0  0  0  0  0  0  0  0  0
  -12.1398   -9.3952    0.0000 C    0  0  0  0  0  0  0  0  0  0  0  0
  1  2  1  0  0  0  0
  2  3  1  0  0  0  0
  3  4  2  0  0  0  0
  4  5  1  0  0  0  0
  4  6  1  0  0  0  0
  6  7  2  0  0  0  0
  7  8  1  0  0  0  0
  8  9  2  0  0  0  0
  9 10  1  0  0  0  0
 10 11  2  0  0  0  0
  9 12  1  0  0  0  0
 12 13  1  0  0  0  0
 12 14  2  0  0  0  0
 14 15  1  0  0  0  0
 15 16  2  0  0  0  0
 16 17  1  0  0  0  0
 17 18  1  1  0  0  0
 17 19  1  0  0  0  0
 19 20  1  6  0  0  0
 20 21  1  0  0  0  0
 21 22  1  0  0  0  0
 22 23  2  0  0  0  0
 22 24  1  0  0  0  0
 24 25  1  0  0  0  0
 25 26  1  0  0  0  0
 26 27  2  0  0  0  0
 27 28  1  0  0  0  0
 27 29  1  0  0  0  0
 29 30  1  0  0  0  0
 30 31  1  0  0  0  0
 31 32  1  0  0  0  0
 32 33  1  1  0  0  0
 32 34  1  0  0  0  0
 34 35  1  0  0  0  0
 35 36  1  0  0  0  0
 36 37  1  0  0  0  0
 37 38  1  1  0  0  0
 37 39  1  0  0  0  0
 39 40  1  0  0  0  0
 40 41  1  0  0  0  0
 41 42  1  0  0  0  0
 42 43  1  0  0  0  0
 42 44  1  0  0  0  0
 19 45  1  0  0  0  0
 45 46  2  0  0  0  0
 16 46  1  0  0  0  0
 46 47  1  0  0  0  0
 47 48  1  0  0  0  0
  8 48  1  0  0  0  0
 14 48  1  0  0  0  0
 47 49  1  0  0  0  0
 49 50  1  0  0  0  0
 50 51  2  0  0  0  0
 51 52  1  0  0  0  0
  3 52  1  0  0  0  0
 52 53  2  0  0  0  0
  6 53  1  0  0  0  0
 47 53  1  0  0  0  0
 50 54  1  0  0  0  0
 54 55  1  0  0  0  0
 54 56  2  0  0  0  0
 56 57  1  0  0  0  0
 57 58  2  0  0  0  0
 57 59  1  0  0  0  0
 59 60  1  6  0  0  0
 60 61  2  0  0  0  0
 60 62  1  0  0  0  0
 62 63  1  0  0  0  0
 59 64  1  0  0  0  0
 45 64  1  0  0  0  0
 64 65  2  0  0  0  0
 49 65  1  0  0  0  0
 56 65  1  0  0  0  0
M  END
> <DRUGBANK_ID>
DB02133

> <DRUG_GROUPS>
experimental

> <GENERIC_NAME>
Chlorophyll A

> <CHEMICAL_FORMULA>
C55H72MgN4O5

> <MOLECULAR_WEIGHT>
893.489

> <EXACT_MASS>
892.535313332

> <IUPAC_NAME>
(5S,22S,23S)-17-ethenyl-12-ethyl-5-(methoxycarbonyl)-8,13,18,22-tetramethyl-6-oxo-23-(3-oxo-3-{[(2E,7R,11R)-3,7,11,15-tetramethylhexadec-2-en-1-yl]oxy}propyl)-2,25$l^{5},26$l^{5},27-tetraaza-1-magnesanonacyclo[12.11.1.1^{1,16}.0^{2,9}.0^{3,7}.0^{4,24}.0^{11,26}.0^{21,25}.0^{19,27}]heptacosa-3,7,9,11(26),12,14,16,18,20,24-decaene-25,26-bis(ylium)

> <IUPAC_TRADITIONAL_NAME>
chlorophyll A

> <INCHI_IDENTIFIER>
InChI=1S/C55H73N4O5.Mg/c1-13-39-35(8)42-28-44-37(10)41(24-25-48(60)64-27-26-34(7)23-17-22-33(6)21-16-20-32(5)19-15-18-31(3)4)52(58-44)50-51(55(62)63-12)54(61)49-38(11)45(59-53(49)50)30-47-40(14-2)36(9)43(57-47)29-46(39)56-42;/h13,26,28-33,37,41,51H,1,14-25,27H2,2-12H3,(H-,56,57,58,59,61);/q-1;+4/p-1/b34-26+;/t32-,33-,37+,41+,51+;/m1./s1

> <INCHI_KEY>
InChIKey=VIQFHHZSLDFWDU-DVXFRRMCSA-M

> <SMILES>
CCC1=C(C)C2=CC3=C(C=C)C(C)=C4C=C5[C@@H](C)[C@H](CCC(=O)OC\C=C(/C)CCC[C@H](C)CCC[C@H](C)CCCC(C)C)C6=[N+]5[Mg]5(N34)N3C(=CC1=[N+]25)C(C)=C1C(=O)[C@@H](C(=O)OC)C6=C31

> <JCHEM_ACCEPTOR_COUNT>
3

> <JCHEM_DONOR_COUNT>
0

> <JCHEM_ACIDIC_PKA>
4.19

> <JCHEM_BASIC_PKA>
-6.8

> <JCHEM_PHYSIOLOGICAL_CHARGE>
1

> <ALOGPS_LOGP>
3.54

> <JCHEM_LOGP>
5.65

> <ALOGPS_LOGS>
-7.5

> <JCHEM_POLARIZABILITY>
109.88

> <JCHEM_POLAR_SURFACE_AREA>
87.29

> <JCHEM_REFRACTIVITY>
266.17

> <JCHEM_ROTATABLE_BOND_COUNT>
22

> <ALOGPS_SOLUBILITY>
2.94e-05 g/l __ 

$$$$
