
  Mrv0541 02231216312D          

 20 22  0  0  1  0            999 V2000
    3.9934    2.4750    0.0000 O   0  0  0  0  0  0  0  0  0  0  0  0
    3.2789    2.0625    0.0000 C   0  0  0  0  0  0  0  0  0  0  0  0
    3.2789    1.2375    0.0000 C   0  0  2  0  0  0  0  0  0  0  0  0
    3.9934    0.8250    0.0000 C   0  0  2  0  0  0  0  0  0  0  0  0
    4.7079    1.2375    0.0000 O   0  0  0  0  0  0  0  0  0  0  0  0
    3.9934    0.0000    0.0000 C   0  0  1  0  0  0  0  0  0  0  0  0
    4.7079   -0.4125    0.0000 O   0  0  0  0  0  0  0  0  0  0  0  0
    3.2789   -0.4125    0.0000 C   0  0  2  0  0  0  0  0  0  0  0  0
    3.2789   -1.2375    0.0000 O   0  0  0  0  0  0  0  0  0  0  0  0
    2.5645    0.0000    0.0000 C   0  0  0  0  0  0  0  0  0  0  0  0
    1.7798   -0.2549    0.0000 N   0  0  0  0  0  0  0  0  0  0  0  0
    1.2949    0.4125    0.0000 C   0  0  0  0  0  0  0  0  0  0  0  0
    1.7798    1.0799    0.0000 C   0  0  0  0  0  0  0  0  0  0  0  0
    2.5645    0.8250    0.0000 N   0  0  0  0  0  0  0  0  0  0  0  0
    0.4699    0.4125    0.0000 C   0  0  0  0  0  0  0  0  0  0  0  0
    0.0574   -0.3020    0.0000 C   0  0  0  0  0  0  0  0  0  0  0  0
   -0.7676   -0.3020    0.0000 C   0  0  0  0  0  0  0  0  0  0  0  0
   -1.1801    0.4125    0.0000 C   0  0  0  0  0  0  0  0  0  0  0  0
   -0.7676    1.1270    0.0000 C   0  0  0  0  0  0  0  0  0  0  0  0
    0.0574    1.1270    0.0000 C   0  0  0  0  0  0  0  0  0  0  0  0
  1  2  1  0  0  0  0
  3  2  1  6  0  0  0
  3  4  1  0  0  0  0
  4  5  1  6  0  0  0
  4  6  1  0  0  0  0
  6  7  1  1  0  0  0
  6  8  1  0  0  0  0
  8  9  1  6  0  0  0
  8 10  1  0  0  0  0
 10 11  2  0  0  0  0
 11 12  1  0  0  0  0
 12 13  2  0  0  0  0
 13 14  1  0  0  0  0
  3 14  1  0  0  0  0
 10 14  1  0  0  0  0
 12 15  1  0  0  0  0
 15 16  2  0  0  0  0
 16 17  1  0  0  0  0
 17 18  2  0  0  0  0
 18 19  1  0  0  0  0
 19 20  2  0  0  0  0
 15 20  1  0  0  0  0
M  END
> <DRUGBANK_ID>
DB02862

> <DRUG_GROUPS>
experimental

> <GENERIC_NAME>
Gluco-Phenylimidazole

> <CHEMICAL_FORMULA>
C14H16N2O4

> <MOLECULAR_WEIGHT>
276.2878

> <EXACT_MASS>
276.11100701

> <IUPAC_NAME>
(5R,6S,7R,8R)-5-(hydroxymethyl)-2-phenyl-5H,6H,7H,8H-imidazo[1,2-a]pyridine-6,7,8-triol

> <IUPAC_TRADITIONAL_NAME>
gluco-phenylimidazole

> <INCHI_IDENTIFIER>
InChI=1S/C14H16N2O4/c17-7-10-11(18)12(19)13(20)14-15-9(6-16(10)14)8-4-2-1-3-5-8/h1-6,10-13,17-20H,7H2/t10-,11+,12-,13+/m1/s1

> <INCHI_KEY>
InChIKey=DLVNFMROYKHANV-XQHKEYJVSA-N

> <SMILES>
OC[C@@H]1[C@H](O)[C@@H](O)[C@H](O)C2=NC(=CN12)C1=CC=CC=C1

> <JCHEM_ACCEPTOR_COUNT>
5

> <JCHEM_DONOR_COUNT>
4

> <JCHEM_ACIDIC_PKA>
12.32

> <JCHEM_BASIC_PKA>
4.53

> <JCHEM_PHYSIOLOGICAL_CHARGE>
0

> <ALOGPS_LOGP>
0.01

> <JCHEM_LOGP>
-0.43

> <ALOGPS_LOGS>
-1.4

> <JCHEM_POLARIZABILITY>
28.56

> <JCHEM_POLAR_SURFACE_AREA>
98.74

> <JCHEM_REFRACTIVITY>
70.48

> <JCHEM_ROTATABLE_BOND_COUNT>
2

> <ALOGPS_SOLUBILITY>
9.89e+00 g/l __ 

$$$$
