
  Mrv0541 02231216102D          

 10  9  0  0  1  0            999 V2000
   -0.1914   -0.7145    0.0000 C   0  0  0  0  0  0  0  0  0  0  0  0
    0.5230   -1.1270    0.0000 C   0  0  0  0  0  0  0  0  0  0  0  0
    0.5230   -1.9520    0.0000 C   0  0  0  0  0  0  0  0  0  0  0  0
    1.2375   -0.7145    0.0000 C   0  0  0  0  0  0  0  0  0  0  0  0
    1.9520   -1.1270    0.0000 C   0  0  2  0  0  0  0  0  0  0  0  0
    1.9520   -1.9520    0.0000 N   0  0  0  0  0  0  0  0  0  0  0  0
    2.6664   -0.7145    0.0000 P   0  0  0  0  0  0  0  0  0  0  0  0
    3.3809   -0.3020    0.0000 O   0  0  0  0  0  0  0  0  0  0  0  0
    3.0789   -1.4289    0.0000 O   0  0  0  0  0  0  0  0  0  0  0  0
    2.2539    0.0000    0.0000 O   0  0  0  0  0  0  0  0  0  0  0  0
  1  2  1  0  0  0  0
  2  3  1  0  0  0  0
  2  4  1  0  0  0  0
  4  5  1  0  0  0  0
  5  6  1  1  0  0  0
  5  7  1  0  0  0  0
  7  8  1  0  0  0  0
  7  9  1  0  0  0  0
  7 10  2  0  0  0  0
M  END
> <DRUGBANK_ID>
DB02386

> <DRUG_GROUPS>
experimental

> <GENERIC_NAME>
Leucine Phosphonic Acid

> <CHEMICAL_FORMULA>
C5H14NO3P

> <MOLECULAR_WEIGHT>
167.1433

> <EXACT_MASS>
167.071129831

> <IUPAC_NAME>
[(1R)-1-amino-3-methylbutyl]phosphonic acid

> <IUPAC_TRADITIONAL_NAME>
(1R)-1-amino-3-methylbutylphosphonic acid

> <INCHI_IDENTIFIER>
InChI=1S/C5H14NO3P/c1-4(2)3-5(6)10(7,8)9/h4-5H,3,6H2,1-2H3,(H2,7,8,9)/t5-/m1/s1

> <INCHI_KEY>
InChIKey=HGCAUCAWEADMPM-RXMQYKEDSA-N

> <SMILES>
CC(C)C[C@H](N)P(O)(O)=O

> <JCHEM_ACCEPTOR_COUNT>
4

> <JCHEM_DONOR_COUNT>
3

> <JCHEM_ACIDIC_PKA>
-0.24

> <JCHEM_BASIC_PKA>
10.23

> <JCHEM_PHYSIOLOGICAL_CHARGE>
-1

> <ALOGPS_LOGP>
-0.44

> <JCHEM_LOGP>
-1.4

> <ALOGPS_LOGS>
-0.7

> <JCHEM_POLARIZABILITY>
15.89

> <JCHEM_POLAR_SURFACE_AREA>
83.55

> <JCHEM_REFRACTIVITY>
38.86

> <JCHEM_ROTATABLE_BOND_COUNT>
3

> <ALOGPS_SOLUBILITY>
3.31e+01 g/l __ 

$$$$
