
  Mrv0541 02231216092D          

  9  8  0  0  1  0            999 V2000
    1.7605    1.8414    0.0000 C   0  0  0  0  0  0  0  0  0  0  0  0
    2.4750    1.4289    0.0000 S   0  0  0  0  0  0  0  0  0  0  0  0
    3.1895    1.8414    0.0000 S   0  0  0  0  0  0  0  0  0  0  0  0
    3.9039    1.4289    0.0000 C   0  0  0  0  0  0  0  0  0  0  0  0
    4.6184    1.8414    0.0000 C   0  0  1  0  0  0  0  0  0  0  0  0
    4.6184    2.6664    0.0000 N   0  0  0  0  0  0  0  0  0  0  0  0
    5.3329    1.4289    0.0000 C   0  0  0  0  0  0  0  0  0  0  0  0
    6.0474    1.8414    0.0000 O   0  0  0  0  0  0  0  0  0  0  0  0
    5.3329    0.6039    0.0000 O   0  0  0  0  0  0  0  0  0  0  0  0
  1  2  1  0  0  0  0
  2  3  1  0  0  0  0
  3  4  1  0  0  0  0
  4  5  1  0  0  0  0
  5  6  1  1  0  0  0
  5  7  1  0  0  0  0
  7  8  1  0  0  0  0
  7  9  2  0  0  0  0
M  END
> <DRUGBANK_ID>
DB02361

> <DRUG_GROUPS>
experimental

> <GENERIC_NAME>
S-Methyl Thiocysteine Group

> <CHEMICAL_FORMULA>
C4H9NO2S2

> <MOLECULAR_WEIGHT>
167.25

> <EXACT_MASS>
167.007469917

> <IUPAC_NAME>
(2S)-2-amino-3-(methyldisulfanyl)propanoic acid

> <IUPAC_TRADITIONAL_NAME>
(2S)-2-amino-3-(methyldisulfanyl)propanoic acid

> <INCHI_IDENTIFIER>
InChI=1S/C4H9NO2S2/c1-8-9-2-3(5)4(6)7/h3H,2,5H2,1H3,(H,6,7)/t3-/m1/s1

> <INCHI_KEY>
InChIKey=PYFNLWPQPNXHCS-GSVOUGTGSA-N

> <SMILES>
CSSC[C@@H](N)C(O)=O

> <JCHEM_ACCEPTOR_COUNT>
3

> <JCHEM_DONOR_COUNT>
2

> <JCHEM_ACIDIC_PKA>
2.15

> <JCHEM_BASIC_PKA>
9.04

> <JCHEM_PHYSIOLOGICAL_CHARGE>
0

> <ALOGPS_LOGP>
-2.1

> <JCHEM_LOGP>
-2.3

> <ALOGPS_LOGS>
-0.94

> <JCHEM_POLARIZABILITY>
16.11

> <JCHEM_POLAR_SURFACE_AREA>
63.32

> <JCHEM_REFRACTIVITY>
41.01

> <JCHEM_ROTATABLE_BOND_COUNT>
4

> <ALOGPS_SOLUBILITY>
1.93e+01 g/l __ 

$$$$
