
  Mrv0541 02231216362D          

 11 10  0  0  1  0            999 V2000
    2.9980    2.5559    0.0000 N   0  0  0  0  0  0  0  0  0  0  0  0
    3.7125    2.1434    0.0000 C   0  0  0  0  0  0  0  0  0  0  0  0
    4.4270    2.5559    0.0000 C   0  0  0  0  0  0  0  0  0  0  0  0
    5.1414    2.1434    0.0000 O   0  0  0  0  0  0  0  0  0  0  0  0
    5.8559    2.5559    0.0000 C   0  0  0  0  0  0  0  0  0  0  0  0
    6.5704    2.1434    0.0000 C   0  0  0  0  0  0  0  0  0  0  0  0
    7.2849    2.5559    0.0000 C   0  0  1  0  0  0  0  0  0  0  0  0
    7.2849    3.3809    0.0000 N   0  0  0  0  0  0  0  0  0  0  0  0
    7.9993    2.1434    0.0000 C   0  0  0  0  0  0  0  0  0  0  0  0
    8.7138    2.5559    0.0000 O   0  0  0  0  0  0  0  0  0  0  0  0
    7.9993    1.3184    0.0000 O   0  0  0  0  0  0  0  0  0  0  0  0
  1  2  1  0  0  0  0
  2  3  1  0  0  0  0
  3  4  1  0  0  0  0
  4  5  1  0  0  0  0
  5  6  1  0  0  0  0
  6  7  1  0  0  0  0
  7  8  1  1  0  0  0
  7  9  1  0  0  0  0
  9 10  1  0  0  0  0
  9 11  2  0  0  0  0
M  END
> <DRUGBANK_ID>
DB02971

> <DRUG_GROUPS>
experimental

> <GENERIC_NAME>
2-Amino-4-(2-Amino-Ethoxy)-Butyric Acid

> <CHEMICAL_FORMULA>
C6H14N2O3

> <MOLECULAR_WEIGHT>
162.187

> <EXACT_MASS>
162.100442324

> <IUPAC_NAME>
(2R)-2-amino-4-(2-aminoethoxy)butanoic acid

> <IUPAC_TRADITIONAL_NAME>
(2R)-2-amino-4-(2-aminoethoxy)butanoic acid

> <INCHI_IDENTIFIER>
InChI=1S/C6H14N2O3/c7-2-4-11-3-1-5(8)6(9)10/h5H,1-4,7-8H2,(H,9,10)/t5-/m1/s1

> <INCHI_KEY>
InChIKey=FDDYPVBIHWFLOI-RXMQYKEDSA-N

> <SMILES>
NCCOCC[C@@H](N)C(O)=O

> <JCHEM_ACCEPTOR_COUNT>
5

> <JCHEM_DONOR_COUNT>
3

> <JCHEM_ACIDIC_PKA>
2.45

> <JCHEM_BASIC_PKA>
9.75

> <JCHEM_PHYSIOLOGICAL_CHARGE>
1

> <ALOGPS_LOGP>
-3.7

> <JCHEM_LOGP>
-4.4

> <ALOGPS_LOGS>
-0.01

> <JCHEM_POLARIZABILITY>
16.99

> <JCHEM_POLAR_SURFACE_AREA>
98.57

> <JCHEM_REFRACTIVITY>
39.61

> <JCHEM_ROTATABLE_BOND_COUNT>
6

> <ALOGPS_SOLUBILITY>
1.59e+02 g/l __ 

$$$$
