
  Mrv0541 02231216182D          

 10  9  0  0  1  0            999 V2000
    4.6184    2.6664    0.0000 N   0  0  0  0  0  0  0  0  0  0  0  0
    4.6184    1.8414    0.0000 C   0  0  1  0  0  0  0  0  0  0  0  0
    3.9039    1.4289    0.0000 C   0  0  0  0  0  0  0  0  0  0  0  0
    3.1895    1.8414    0.0000 C   0  0  0  0  0  0  0  0  0  0  0  0
    2.4750    1.4289    0.0000 C   0  0  0  0  0  0  0  0  0  0  0  0
    1.7605    1.8414    0.0000 C   0  0  0  0  0  0  0  0  0  0  0  0
    1.0461    1.4289    0.0000 O   0  0  0  0  0  0  0  0  0  0  0  0
    5.3329    1.4289    0.0000 C   0  0  0  0  0  0  0  0  0  0  0  0
    6.0474    1.8414    0.0000 O   0  0  0  0  0  0  0  0  0  0  0  0
    5.3329    0.6039    0.0000 O   0  0  0  0  0  0  0  0  0  0  0  0
  2  1  1  6  0  0  0
  2  3  1  0  0  0  0
  3  4  1  0  0  0  0
  4  5  1  0  0  0  0
  5  6  1  0  0  0  0
  6  7  2  0  0  0  0
  2  8  1  0  0  0  0
  8  9  1  0  0  0  0
  8 10  2  0  0  0  0
M  END
> <DRUGBANK_ID>
DB02571

> <DRUG_GROUPS>
experimental

> <GENERIC_NAME>
2-Amino-6-Oxo-Hexanoic Acid

> <CHEMICAL_FORMULA>
C6H11NO3

> <MOLECULAR_WEIGHT>
145.1564

> <EXACT_MASS>
145.073893223

> <IUPAC_NAME>
(2S)-2-amino-6-oxohexanoic acid

> <IUPAC_TRADITIONAL_NAME>
allysine

> <INCHI_IDENTIFIER>
InChI=1S/C6H11NO3/c7-5(6(9)10)3-1-2-4-8/h4-5H,1-3,7H2,(H,9,10)/t5-/m0/s1

> <INCHI_KEY>
InChIKey=GFXYTQPNNXGICT-YFKPBYRVSA-N

> <SMILES>
N[C@@H](CCCC=O)C(O)=O

> <JCHEM_ACCEPTOR_COUNT>
4

> <JCHEM_DONOR_COUNT>
2

> <JCHEM_ACIDIC_PKA>
2.25

> <JCHEM_BASIC_PKA>
9.33

> <JCHEM_PHYSIOLOGICAL_CHARGE>
0

> <ALOGPS_LOGP>
-2.2

> <JCHEM_LOGP>
-2.9

> <ALOGPS_LOGS>
-0.47

> <JCHEM_POLARIZABILITY>
14.58

> <JCHEM_POLAR_SURFACE_AREA>
80.39

> <JCHEM_REFRACTIVITY>
34.96

> <JCHEM_ROTATABLE_BOND_COUNT>
5

> <ALOGPS_SOLUBILITY>
4.94e+01 g/l __ 

$$$$
