
  Mrv0541 02231216122D          

 18 19  0  0  1  0            999 V2000
    2.5070   -1.7309    0.0000 O   0  0  0  0  0  0  0  0  0  0  0  0
    2.9195   -1.0164    0.0000 C   0  0  0  0  0  0  0  0  0  0  0  0
    2.5070   -0.3020    0.0000 C   0  0  1  0  0  0  0  0  0  0  0  0
    1.6820   -0.3020    0.0000 O   0  0  0  0  0  0  0  0  0  0  0  0
    1.2695    0.4125    0.0000 C   0  0  1  0  0  0  0  0  0  0  0  0
    0.7846   -0.2549    0.0000 N   0  0  0  0  0  0  0  0  0  0  0  0
    0.0000    0.0000    0.0000 C   0  0  0  0  0  0  0  0  0  0  0  0
   -0.6674   -0.4849    0.0000 O   0  0  0  0  0  0  0  0  0  0  0  0
    0.0000    0.8250    0.0000 N   0  0  0  0  0  0  0  0  0  0  0  0
   -0.6674    1.3099    0.0000 O   0  0  0  0  0  0  0  0  0  0  0  0
    0.7846    1.0799    0.0000 C   0  0  0  0  0  0  0  0  0  0  0  0
    1.0396    1.8646    0.0000 O   0  0  0  0  0  0  0  0  0  0  0  0
    1.6820    1.1270    0.0000 C   0  0  2  0  0  0  0  0  0  0  0  0
    1.5105    1.9339    0.0000 O   0  0  0  0  0  0  0  0  0  0  0  0
    2.5070    1.1270    0.0000 C   0  0  1  0  0  0  0  0  0  0  0  0
    2.9195    1.8414    0.0000 O   0  0  0  0  0  0  0  0  0  0  0  0
    2.9195    0.4125    0.0000 C   0  0  2  0  0  0  0  0  0  0  0  0
    3.7445    0.4125    0.0000 O   0  0  0  0  0  0  0  0  0  0  0  0
  1  2  1  0  0  0  0
  3  2  1  1  0  0  0
  3  4  1  0  0  0  0
  5  4  1  1  0  0  0
  5  6  1  0  0  0  0
  6  7  1  0  0  0  0
  7  8  2  0  0  0  0
  7  9  1  0  0  0  0
  9 10  1  0  0  0  0
  9 11  1  0  0  0  0
  5 11  1  0  0  0  0
 11 12  2  0  0  0  0
  5 13  1  0  0  0  0
 13 14  1  6  0  0  0
 13 15  1  0  0  0  0
 15 16  1  1  0  0  0
 15 17  1  0  0  0  0
  3 17  1  0  0  0  0
 17 18  1  6  0  0  0
M  END
> <DRUGBANK_ID>
DB02447

> <DRUG_GROUPS>
experimental

> <GENERIC_NAME>
3,8,9,10-Tetrahydroxy-7-Hydroxymethyl-6-Oxa-1,3-Diaza-Spiro[4.5]Decane-2,4-Dione

> <CHEMICAL_FORMULA>
C8H12N2O8

> <MOLECULAR_WEIGHT>
264.1895

> <EXACT_MASS>
264.05936537

> <IUPAC_NAME>
(5R,7R,8S,9S,10R)-3,8,9,10-tetrahydroxy-7-(hydroxymethyl)-6-oxa-1,3-diazaspiro[4.5]decane-2,4-dione

> <IUPAC_TRADITIONAL_NAME>
(5R,7R,8S,9S,10R)-3,8,9,10-tetrahydroxy-7-(hydroxymethyl)-6-oxa-1,3-diazaspiro[4.5]decane-2,4-dione

> <INCHI_IDENTIFIER>
InChI=1S/C8H12N2O8/c11-1-2-3(12)4(13)5(14)8(18-2)6(15)10(17)7(16)9-8/h2-5,11-14,17H,1H2,(H,9,16)/t2-,3-,4+,5-,8-/m1/s1

> <INCHI_KEY>
InChIKey=IHDZZZHACPJCFJ-UXDJRKLDSA-N

> <SMILES>
OC[C@H]1O[C@]2(NC(=O)N(O)C2=O)[C@H](O)[C@@H](O)[C@@H]1O

> <JCHEM_ACCEPTOR_COUNT>
8

> <JCHEM_DONOR_COUNT>
6

> <JCHEM_ACIDIC_PKA>
7.31

> <JCHEM_BASIC_PKA>
-3

> <JCHEM_PHYSIOLOGICAL_CHARGE>
0

> <ALOGPS_LOGP>
-2.3

> <JCHEM_LOGP>
-3.3

> <ALOGPS_LOGS>
0

> <JCHEM_POLARIZABILITY>
22.32

> <JCHEM_POLAR_SURFACE_AREA>
159.79

> <JCHEM_REFRACTIVITY>
50.73

> <JCHEM_ROTATABLE_BOND_COUNT>
1

> <ALOGPS_SOLUBILITY>
2.62e+02 g/l __ 

$$$$
