
  Mrv0541 02231215552D          

 20 19  0  0  0  0            999 V2000
    7.2336   -5.0013    0.0000 C   0  0  0  0  0  0  0  0  0  0  0  0
    7.9480   -5.4138    0.0000 C   0  0  0  0  0  0  0  0  0  0  0  0
    8.6625   -5.0013    0.0000 C   0  0  0  0  0  0  0  0  0  0  0  0
    9.3770   -5.4138    0.0000 C   0  0  0  0  0  0  0  0  0  0  0  0
   10.0914   -5.0013    0.0000 C   0  0  0  0  0  0  0  0  0  0  0  0
   10.8059   -5.4138    0.0000 C   0  0  0  0  0  0  0  0  0  0  0  0
   11.5204   -5.0013    0.0000 C   0  0  0  0  0  0  0  0  0  0  0  0
   12.2349   -5.4138    0.0000 C   0  0  0  0  0  0  0  0  0  0  0  0
   12.9493   -5.0013    0.0000 C   0  0  0  0  0  0  0  0  0  0  0  0
   13.6638   -5.4138    0.0000 C   0  0  0  0  0  0  0  0  0  0  0  0
   14.3783   -5.0013    0.0000 C   0  0  0  0  0  0  0  0  0  0  0  0
   15.0927   -5.4138    0.0000 C   0  0  0  0  0  0  0  0  0  0  0  0
   15.8072   -5.0013    0.0000 C   0  0  0  0  0  0  0  0  0  0  0  0
   16.5217   -5.4138    0.0000 C   0  0  0  0  0  0  0  0  0  0  0  0
   17.2362   -5.0013    0.0000 C   0  0  0  0  0  0  0  0  0  0  0  0
   17.9506   -5.4138    0.0000 C   0  0  0  0  0  0  0  0  0  0  0  0
   18.6651   -5.0013    0.0000 S   0  0  0  0  0  0  0  0  0  0  0  0
   19.3796   -4.5888    0.0000 F   0  0  0  0  0  0  0  0  0  0  0  0
   19.0776   -5.7158    0.0000 O   0  0  0  0  0  0  0  0  0  0  0  0
   18.2526   -4.2868    0.0000 O   0  0  0  0  0  0  0  0  0  0  0  0
  1  2  1  0  0  0  0
  2  3  1  0  0  0  0
  3  4  1  0  0  0  0
  4  5  1  0  0  0  0
  5  6  1  0  0  0  0
  6  7  1  0  0  0  0
  7  8  1  0  0  0  0
  8  9  1  0  0  0  0
  9 10  1  0  0  0  0
 10 11  1  0  0  0  0
 11 12  1  0  0  0  0
 12 13  1  0  0  0  0
 13 14  1  0  0  0  0
 14 15  1  0  0  0  0
 15 16  1  0  0  0  0
 16 17  1  0  0  0  0
 17 18  1  0  0  0  0
 17 19  2  0  0  0  0
 17 20  2  0  0  0  0
M  END
> <DRUGBANK_ID>
DB02035

> <DRUG_GROUPS>
experimental

> <GENERIC_NAME>
1-Hexadecylsulfonyl Fluoride

> <CHEMICAL_FORMULA>
C16H33FO2S

> <MOLECULAR_WEIGHT>
308.495

> <EXACT_MASS>
308.218529195

> <IUPAC_NAME>
hexadecane-1-sulfonyl fluoride

> <IUPAC_TRADITIONAL_NAME>
hexadecane-1-sulfonyl fluoride

> <INCHI_IDENTIFIER>
InChI=1S/C16H33FO2S/c1-2-3-4-5-6-7-8-9-10-11-12-13-14-15-16-20(17,18)19/h2-16H2,1H3

> <INCHI_KEY>
InChIKey=QIVFMUVBIHIZAM-UHFFFAOYSA-N

> <SMILES>
CCCCCCCCCCCCCCCCS(F)(=O)=O

> <JCHEM_ACCEPTOR_COUNT>
2

> <JCHEM_DONOR_COUNT>
0

> <JCHEM_PHYSIOLOGICAL_CHARGE>
0

> <ALOGPS_LOGP>
7.07

> <JCHEM_LOGP>
6.33

> <ALOGPS_LOGS>
-6

> <JCHEM_POLARIZABILITY>
38.22

> <JCHEM_POLAR_SURFACE_AREA>
34.14

> <JCHEM_REFRACTIVITY>
84.68

> <JCHEM_ROTATABLE_BOND_COUNT>
15

> <ALOGPS_SOLUBILITY>
3.16e-04 g/l __ 

$$$$
