
  Mrv0541 02231216252D          

  4  3  0  0  0  0            999 V2000
    1.2375    0.7145    0.0000 C   0  0  0  0  0  0  0  0  0  0  0  0
    0.8250    0.0000    0.0000 C   0  0  0  0  0  0  0  0  0  0  0  0
    1.2375   -0.7145    0.0000 N   0  0  0  0  0  0  0  0  0  0  0  0
    0.0000    0.0000    0.0000 O   0  0  0  0  0  0  0  0  0  0  0  0
  1  2  1  0  0  0  0
  2  3  1  0  0  0  0
  2  4  2  0  0  0  0
M  END
> <DRUGBANK_ID>
DB02736

> <DRUG_GROUPS>
experimental

> <GENERIC_NAME>
Acetamide

> <CHEMICAL_FORMULA>
C2H5NO

> <MOLECULAR_WEIGHT>
59.0672

> <EXACT_MASS>
59.037113787

> <IUPAC_NAME>
acetamide

> <IUPAC_TRADITIONAL_NAME>
acetamide

> <INCHI_IDENTIFIER>
InChI=1S/C2H5NO/c1-2(3)4/h1H3,(H2,3,4)

> <INCHI_KEY>
InChIKey=DLFVBJFMPXGRIB-UHFFFAOYSA-N

> <SMILES>
CC(N)=O

> <JCHEM_ACCEPTOR_COUNT>
1

> <JCHEM_DONOR_COUNT>
1

> <JCHEM_ACIDIC_PKA>
16.75

> <JCHEM_BASIC_PKA>
-1.3

> <JCHEM_PHYSIOLOGICAL_CHARGE>
0

> <ALOGPS_LOGP>
-1.1

> <JCHEM_LOGP>
-1

> <ALOGPS_LOGS>
0.8

> <JCHEM_POLARIZABILITY>
5.76

> <JCHEM_POLAR_SURFACE_AREA>
43.09

> <JCHEM_REFRACTIVITY>
14.47

> <JCHEM_ROTATABLE_BOND_COUNT>
0

> <ALOGPS_SOLUBILITY>
3.69e+02 g/l __ 

$$$$
