
  Mrv0541 02231216302D          

  8  8  0  0  1  0            999 V2000
   -0.1467    2.3518    0.0000 O   0  0  0  0  0  0  0  0  0  0  0  0
    0.5678    1.9393    0.0000 C   0  0  0  0  0  0  0  0  0  0  0  0
    1.2822    2.3518    0.0000 O   0  0  0  0  0  0  0  0  0  0  0  0
    0.5678    1.1143    0.0000 C   0  0  2  0  0  0  0  0  0  0  0  0
    1.2352    0.6294    0.0000 C   0  0  0  0  0  0  0  0  0  0  0  0
    0.9803   -0.1553    0.0000 C   0  0  0  0  0  0  0  0  0  0  0  0
    0.1553   -0.1553    0.0000 C   0  0  0  0  0  0  0  0  0  0  0  0
   -0.0997    0.6294    0.0000 N   0  0  0  0  0  0  0  0  0  0  0  0
  1  2  1  0  0  0  0
  2  3  2  0  0  0  0
  4  2  1  6  0  0  0
  4  5  1  0  0  0  0
  5  6  1  0  0  0  0
  6  7  1  0  0  0  0
  7  8  1  0  0  0  0
  4  8  1  0  0  0  0
M  END
> <DRUGBANK_ID>
DB02853

> <DRUG_GROUPS>
experimental

> <GENERIC_NAME>
D-Proline

> <CHEMICAL_FORMULA>
C5H9NO2

> <MOLECULAR_WEIGHT>
115.1305

> <EXACT_MASS>
115.063328537

> <IUPAC_NAME>
(2S)-pyrrolidine-2-carboxylic acid

> <IUPAC_TRADITIONAL_NAME>
L-proline

> <INCHI_IDENTIFIER>
InChI=1S/C5H9NO2/c7-5(8)4-2-1-3-6-4/h4,6H,1-3H2,(H,7,8)/t4-/m0/s1

> <INCHI_KEY>
InChIKey=ONIBWKKTOPOVIA-BYPYZUCNSA-N

> <SMILES>
OC(=O)[C@@H]1CCCN1

> <JCHEM_ACCEPTOR_COUNT>
3

> <JCHEM_DONOR_COUNT>
2

> <JCHEM_ACIDIC_PKA>
1.94

> <JCHEM_BASIC_PKA>
11.33

> <JCHEM_PHYSIOLOGICAL_CHARGE>
0

> <ALOGPS_LOGP>
-2.7

> <JCHEM_LOGP>
-2.6

> <ALOGPS_LOGS>
0.5

> <JCHEM_POLARIZABILITY>
11.47

> <JCHEM_POLAR_SURFACE_AREA>
49.33

> <JCHEM_REFRACTIVITY>
28.06

> <JCHEM_ROTATABLE_BOND_COUNT>
1

> <ALOGPS_SOLUBILITY>
3.65e+02 g/l __ 

$$$$
