
  Mrv0541 02231216322D          

 13 12  0  0  1  0            999 V2000
    7.2849    3.3809    0.0000 N   0  0  0  0  0  0  0  0  0  0  0  0
    7.2849    2.5559    0.0000 C   0  0  1  0  0  0  0  0  0  0  0  0
    6.5704    2.1434    0.0000 C   0  0  0  0  0  0  0  0  0  0  0  0
    5.8559    2.5559    0.0000 C   0  0  0  0  0  0  0  0  0  0  0  0
    5.1414    2.1434    0.0000 C   0  0  0  0  0  0  0  0  0  0  0  0
    4.4270    2.5559    0.0000 C   0  0  0  0  0  0  0  0  0  0  0  0
    4.4270    3.3809    0.0000 C   0  0  0  0  0  0  0  0  0  0  0  0
    3.7125    2.1434    0.0000 C   0  0  0  0  0  0  0  0  0  0  0  0
    2.9980    2.5559    0.0000 O   0  0  0  0  0  0  0  0  0  0  0  0
    3.7125    1.3184    0.0000 O   0  0  0  0  0  0  0  0  0  0  0  0
    7.9993    2.1434    0.0000 C   0  0  0  0  0  0  0  0  0  0  0  0
    8.7138    2.5559    0.0000 O   0  0  0  0  0  0  0  0  0  0  0  0
    7.9993    1.3184    0.0000 O   0  0  0  0  0  0  0  0  0  0  0  0
  2  1  1  6  0  0  0
  2  3  1  0  0  0  0
  3  4  1  0  0  0  0
  4  5  1  0  0  0  0
  5  6  1  0  0  0  0
  6  7  2  0  0  0  0
  6  8  1  0  0  0  0
  8  9  1  0  0  0  0
  8 10  2  0  0  0  0
  2 11  1  0  0  0  0
 11 12  1  0  0  0  0
 11 13  2  0  0  0  0
M  END
> <DRUGBANK_ID>
DB02892

> <DRUG_GROUPS>
experimental

> <GENERIC_NAME>
L-2-Amino-6-Methylene-Pimelic Acid

> <CHEMICAL_FORMULA>
C8H13NO4

> <MOLECULAR_WEIGHT>
187.1931

> <EXACT_MASS>
187.084457909

> <IUPAC_NAME>
(2S)-2-amino-6-methylideneheptanedioic acid

> <IUPAC_TRADITIONAL_NAME>
(2S)-2-amino-6-methylideneheptanedioic acid

> <INCHI_IDENTIFIER>
InChI=1S/C8H13NO4/c1-5(7(10)11)3-2-4-6(9)8(12)13/h6H,1-4,9H2,(H,10,11)(H,12,13)/t6-/m0/s1

> <INCHI_KEY>
InChIKey=SGAIRWMSXVAPOO-LURJTMIESA-N

> <SMILES>
N[C@@H](CCCC(=C)C(O)=O)C(O)=O

> <JCHEM_ACCEPTOR_COUNT>
5

> <JCHEM_DONOR_COUNT>
3

> <JCHEM_ACIDIC_PKA>
2.16

> <JCHEM_BASIC_PKA>
9.53

> <JCHEM_PHYSIOLOGICAL_CHARGE>
-1

> <ALOGPS_LOGP>
-2.9

> <JCHEM_LOGP>
-1.9

> <ALOGPS_LOGS>
-0.93

> <JCHEM_POLARIZABILITY>
18.62

> <JCHEM_POLAR_SURFACE_AREA>
100.62

> <JCHEM_REFRACTIVITY>
44.87

> <JCHEM_ROTATABLE_BOND_COUNT>
6

> <ALOGPS_SOLUBILITY>
2.20e+01 g/l __ 

$$$$
