
  Mrv0541 02231216312D          

 26 27  0  0  0  0            999 V2000
   -2.8961   -2.2230    0.0000 N   0  0  0  0  0  0  0  0  0  0  0  0
   -2.3441   -2.8361    0.0000 C   0  0  0  0  0  0  0  0  0  0  0  0
   -2.5990   -3.6207    0.0000 O   0  0  0  0  0  0  0  0  0  0  0  0
   -1.5371   -2.6646    0.0000 C   0  0  0  0  0  0  0  0  0  0  0  0
   -0.9851   -3.2777    0.0000 C   0  0  0  0  0  0  0  0  0  0  0  0
   -0.1781   -3.1062    0.0000 C   0  0  0  0  0  0  0  0  0  0  0  0
    0.3739   -3.7192    0.0000 C   0  0  0  0  0  0  0  0  0  0  0  0
    1.1809   -3.5477    0.0000 S   0  0  0  0  0  0  0  0  0  0  0  0
    1.4358   -2.7631    0.0000 O   0  0  0  0  0  0  0  0  0  0  0  0
    1.7329   -4.1608    0.0000 O   0  0  0  0  0  0  0  0  0  0  0  0
    0.0768   -2.3215    0.0000 C   0  0  0  0  0  0  0  0  0  0  0  0
    0.8838   -2.1500    0.0000 N   0  0  0  0  0  0  0  0  0  0  0  0
    1.1387   -1.3654    0.0000 C   0  0  0  0  0  0  0  0  0  0  0  0
    0.6538   -0.6979    0.0000 C   0  0  0  0  0  0  0  0  0  0  0  0
   -0.1712   -0.6979    0.0000 C   0  0  0  0  0  0  0  0  0  0  0  0
   -0.5837    0.0165    0.0000 O   0  0  0  0  0  0  0  0  0  0  0  0
    1.1387   -0.0305    0.0000 C   0  0  0  0  0  0  0  0  0  0  0  0
    1.9233   -0.2854    0.0000 C   0  0  0  0  0  0  0  0  0  0  0  0
    2.6378    0.1271    0.0000 C   0  0  0  0  0  0  0  0  0  0  0  0
    3.3523   -0.2854    0.0000 C   0  0  0  0  0  0  0  0  0  0  0  0
    3.3523   -1.1104    0.0000 C   0  0  0  0  0  0  0  0  0  0  0  0
    2.6378   -1.5229    0.0000 C   0  0  0  0  0  0  0  0  0  0  0  0
    1.9233   -1.1104    0.0000 N   0  0  0  0  0  0  0  0  0  0  0  0
   -0.4752   -1.7084    0.0000 C   0  0  0  0  0  0  0  0  0  0  0  0
   -0.4752   -0.8834    0.0000 O   0  0  0  0  0  0  0  0  0  0  0  0
   -1.2822   -1.8800    0.0000 O   0  0  0  0  0  0  0  0  0  0  0  0
  1  2  1  0  0  0  0
  2  3  2  0  0  0  0
  2  4  1  0  0  0  0
  4  5  2  0  0  0  0
  5  6  1  0  0  0  0
  6  7  1  0  0  0  0
  7  8  1  0  0  0  0
  8  9  2  0  0  0  0
  8 10  2  0  0  0  0
  6 11  2  0  0  0  0
 11 12  1  0  0  0  0
 12 13  1  0  0  0  0
 13 14  2  0  0  0  0
 14 15  1  0  0  0  0
 15 16  2  0  0  0  0
 14 17  1  0  0  0  0
 17 18  2  0  0  0  0
 18 19  1  0  0  0  0
 19 20  2  0  0  0  0
 20 21  1  0  0  0  0
 21 22  2  0  0  0  0
 22 23  1  0  0  0  0
 13 23  1  0  0  0  0
 18 23  1  0  0  0  0
 11 24  1  0  0  0  0
 24 25  1  0  0  0  0
 24 26  2  0  0  0  0
M  END
> <DRUGBANK_ID>
DB02876

> <DRUG_GROUPS>
experimental

> <GENERIC_NAME>
3-(4-Carbamoyl-1-Carboxy-2-Methylsulfonyl-Buta-1,3-Dienylamino)-Indolizine-2-Carboxylic Acid

> <CHEMICAL_FORMULA>
C16H14N3O6S

> <MOLECULAR_WEIGHT>
376.364

> <EXACT_MASS>
376.060330885

> <IUPAC_NAME>
(2Z)-2-[(1E)-2-carbamoyleth-1-en-1-yl]-3-carboxy-3-[(2-formylindolizin-3-yl)amino]prop-2-ene-1-sulfonyl

> <IUPAC_TRADITIONAL_NAME>
(2Z)-2-[(1E)-2-carbamoyleth-1-en-1-yl]-3-carboxy-3-[(2-formylindolizin-3-yl)amino]prop-2-ene-1-sulfonyl

> <INCHI_IDENTIFIER>
InChI=1S/C16H14N3O6S/c17-13(21)5-4-10(9-26(24)25)14(16(22)23)18-15-11(8-20)7-12-3-1-2-6-19(12)15/h1-8,18H,9H2,(H2,17,21)(H,22,23)/b5-4+,14-10-

> <INCHI_KEY>
InChIKey=ZEZKZXSNVZLMTH-IBXIYJDRSA-N

> <SMILES>
NC(=O)\C=C\C(\C[S](=O)=O)=C(\NC1=C(C=O)C=C2C=CC=CN12)C(O)=O

> <JCHEM_ACCEPTOR_COUNT>
7

> <JCHEM_DONOR_COUNT>
3

> <JCHEM_ACIDIC_PKA>
3.74

> <JCHEM_BASIC_PKA>
1.52

> <JCHEM_PHYSIOLOGICAL_CHARGE>
-1

> <ALOGPS_LOGP>
0.47

> <JCHEM_LOGP>
-0.51

> <ALOGPS_LOGS>
-4.6

> <JCHEM_POLARIZABILITY>
34.94

> <JCHEM_POLAR_SURFACE_AREA>
148.04

> <JCHEM_REFRACTIVITY>
96.93

> <JCHEM_ROTATABLE_BOND_COUNT>
8

> <ALOGPS_SOLUBILITY>
9.06e-03 g/l __ 

$$$$
