
  Mrv0541 02231216342D          

 31 33  0  0  1  0            999 V2000
   -3.2056    4.3648    0.0000 N    0  0  0  0  0  0  0  0  0  0  0  0
   -2.3986    4.5363    0.0000 C    0  0  0  0  0  0  0  0  0  0  0  0
   -2.1437    5.3209    0.0000 N    0  0  0  0  0  0  0  0  0  0  0  0
   -1.3367    5.4924    0.0000 C    0  0  0  0  0  0  0  0  0  0  0  0
   -0.7847    4.8794    0.0000 N    0  0  0  0  0  0  0  0  0  0  0  0
   -1.0396    4.0947    0.0000 C    0  0  0  0  0  0  0  0  0  0  0  0
   -1.8466    3.9232    0.0000 C    0  0  0  0  0  0  0  0  0  0  0  0
   -1.9328    3.1027    0.0000 N    0  0  0  0  0  0  0  0  0  0  0  0
   -1.1791    2.7672    0.0000 C    0  0  0  0  0  0  0  0  0  0  0  0
   -0.6271    3.3803    0.0000 N    0  0  0  0  0  0  0  0  0  0  0  0
    0.1934    3.2940    0.0000 C    0  0  2  0  0  0  0  0  0  0  0  0
    0.7454    3.9071    0.0000 O    0  0  0  0  0  0  0  0  0  0  0  0
    1.4991    3.5716    0.0000 C    0  0  1  0  0  0  0  0  0  0  0  0
    2.2136    3.9841    0.0000 C    0  0  0  0  0  0  0  0  0  0  0  0
    2.9280    3.5716    0.0000 O    0  0  0  0  0  0  0  0  0  0  0  0
    3.6425    3.9841    0.0000 P    0  0  1  0  0  0  0  0  0  0  0  0
    4.0550    3.2696    0.0000 O    0  0  0  0  0  0  0  0  0  0  0  0
    3.2300    4.6985    0.0000 O    0  0  0  0  0  0  0  0  0  0  0  0
    4.3570    4.3966    0.0000 O    0  0  0  0  0  0  0  0  0  0  0  0
    5.0714    3.9841    0.0000 P    0  0  1  0  0  0  0  0  0  0  0  0
    4.6589    3.2696    0.0000 O    0  0  0  0  0  0  0  0  0  0  0  0
    5.4839    4.6985    0.0000 O    0  0  0  0  0  0  0  0  0  0  0  0
    5.7859    3.5716    0.0000 C    0  0  0  0  0  0  0  0  0  0  0  0
    6.5004    3.9841    0.0000 As   0  0  0  0  0  0  0  0  0  0  0  0
    7.2149    4.3966    0.0000 O    0  0  0  0  0  0  0  0  0  0  0  0
    6.9129    3.2696    0.0000 O    0  0  0  0  0  0  0  0  0  0  0  0
    6.0879    4.6985    0.0000 O    0  0  0  0  0  0  0  0  0  0  0  0
    1.4129    2.7511    0.0000 C    0  0  2  0  0  0  0  0  0  0  0  0
    2.0260    2.1990    0.0000 O    0  0  0  0  0  0  0  0  0  0  0  0
    0.6059    2.5796    0.0000 C    0  0  1  0  0  0  0  0  0  0  0  0
    0.2703    1.8259    0.0000 O    0  0  0  0  0  0  0  0  0  0  0  0
  1  2  1  0  0  0  0
  2  3  2  0  0  0  0
  3  4  1  0  0  0  0
  4  5  2  0  0  0  0
  5  6  1  0  0  0  0
  6  7  2  0  0  0  0
  2  7  1  0  0  0  0
  7  8  1  0  0  0  0
  8  9  2  0  0  0  0
  9 10  1  0  0  0  0
  6 10  1  0  0  0  0
 11 10  1  6  0  0  0
 11 12  1  0  0  0  0
 12 13  1  0  0  0  0
 13 14  1  1  0  0  0
 14 15  1  0  0  0  0
 16 15  1  1  0  0  0
 16 17  1  6  0  0  0
 16 18  2  0  0  0  0
 16 19  1  0  0  0  0
 20 19  1  1  0  0  0
 20 21  1  6  0  0  0
 20 22  2  0  0  0  0
 20 23  1  0  0  0  0
 23 24  1  0  0  0  0
 24 25  1  0  0  0  0
 24 26  1  0  0  0  0
 24 27  1  0  0  0  0
 13 28  1  0  0  0  0
 28 29  1  6  0  0  0
 28 30  1  0  0  0  0
 11 30  1  0  0  0  0
 30 31  1  1  0  0  0
M  END
> <DRUGBANK_ID>
DB02937

> <DRUG_GROUPS>
experimental

> <GENERIC_NAME>
Gamma-Arsono-Beta, Gamma-Methyleneadenosine-5'-Diphosphate

> <CHEMICAL_FORMULA>
C11H19AsN5O12P2

> <MOLECULAR_WEIGHT>
550.164

> <EXACT_MASS>
549.972140538

> <IUPAC_NAME>
({[({[(2S,3R,4R,5R)-5-(6-amino-9H-purin-9-yl)-3,4-dihydroxyoxolan-2-yl]methoxy}(hydroxy)phosphoryl)oxy](hydroxy)phosphoryl}methyl)-$l^{5}-arsanetriyl

> <IUPAC_TRADITIONAL_NAME>
[({[(2S,3R,4R,5R)-5-(6-aminopurin-9-yl)-3,4-dihydroxyoxolan-2-yl]methoxy(hydroxy)phosphoryl}oxy(hydroxy)phosphoryl)methyl]-$l^{5}-arsanetriyl

> <INCHI_IDENTIFIER>
InChI=1S/C11H19AsN5O12P2/c13-9-6-10(15-3-14-9)17(4-16-6)11-8(19)7(18)5(28-11)1-27-31(25,26)29-30(23,24)2-12(20,21)22/h3-5,7-8,11,18-22H,1-2H2,(H,23,24)(H,25,26)(H2,13,14,15)/t5-,7-,8+,11+/m0/s1

> <INCHI_KEY>
InChIKey=ACTCPZXBRDYEOC-WOIOKPISSA-N

> <SMILES>
NC1=NC=NC2=C1N=CN2[C@@H]1O[C@@H](CO[P@@](O)(=O)O[P@@](O)(=O)C[As](O)(O)O)[C@H](O)[C@H]1O

> <JCHEM_ACCEPTOR_COUNT>
14

> <JCHEM_DONOR_COUNT>
8

> <JCHEM_ACIDIC_PKA>
1.87

> <JCHEM_BASIC_PKA>
5

> <JCHEM_PHYSIOLOGICAL_CHARGE>
-2

> <ALOGPS_LOGP>
-1.6

> <JCHEM_LOGP>
-6.5

> <ALOGPS_LOGS>
-2.2

> <JCHEM_POLARIZABILITY>
41.02

> <JCHEM_POLAR_SURFACE_AREA>
273.06

> <JCHEM_REFRACTIVITY>
94.01

> <JCHEM_ROTATABLE_BOND_COUNT>
8

> <ALOGPS_SOLUBILITY>
3.42e+00 g/l __ 

$$$$
