
  Mrv0541 02231216302D          

  4  3  0  0  1  0            999 V2000
    1.2375    0.7145    0.0000 C   0  0  0  0  0  0  0  0  0  0  0  0
    0.8250    0.0000    0.0000 P   0  0  1  0  0  0  0  0  0  0  0  0
    1.2375   -0.7145    0.0000 O   0  0  0  0  0  0  0  0  0  0  0  0
    0.0000    0.0000    0.0000 O   0  0  0  0  0  0  0  0  0  0  0  0
  1  2  1  0  0  0  0
  2  3  1  1  0  0  0
  2  4  2  0  0  0  0
M  END
> <DRUGBANK_ID>
DB02845

> <DRUG_GROUPS>
experimental

> <GENERIC_NAME>
Methylphosphinic Acid

> <CHEMICAL_FORMULA>
CH5O2P

> <MOLECULAR_WEIGHT>
80.023

> <EXACT_MASS>
80.002715916

> <IUPAC_NAME>
methylphosphinic acid

> <IUPAC_TRADITIONAL_NAME>
methylphosphinic acid

> <INCHI_IDENTIFIER>
InChI=1S/CH5O2P/c1-4(2)3/h4H,1H3,(H,2,3)

> <INCHI_KEY>
InChIKey=BCDIWLCKOCHCIH-UHFFFAOYSA-N

> <SMILES>
CP(O)=O

> <JCHEM_ACCEPTOR_COUNT>
2

> <JCHEM_DONOR_COUNT>
1

> <JCHEM_ACIDIC_PKA>
2.31

> <JCHEM_PHYSIOLOGICAL_CHARGE>
-1

> <ALOGPS_LOGP>
-1.2

> <JCHEM_LOGP>
-1.2

> <ALOGPS_LOGS>
0.94

> <JCHEM_POLARIZABILITY>
6.18

> <JCHEM_POLAR_SURFACE_AREA>
37.3

> <JCHEM_REFRACTIVITY>
15.95

> <JCHEM_ROTATABLE_BOND_COUNT>
0

> <ALOGPS_SOLUBILITY>
6.91e+02 g/l __ 

$$$$
