1PB
  Mrv0541 02231216342D          

 16 17  0  0  0  0            999 V2000
    0.7021    3.2590    0.0000 C   0  0  0  0  0  0  0  0  0  0  0  0
   -0.7269   -0.8660    0.0000 C   0  0  0  0  0  0  0  0  0  0  0  0
   -0.0124   -0.4535    0.0000 C   0  0  0  0  0  0  0  0  0  0  0  0
   -0.0124    0.3715    0.0000 C   0  0  0  0  0  0  0  0  0  0  0  0
    0.7021    0.7840    0.0000 C   0  0  0  0  0  0  0  0  0  0  0  0
   -0.7269   -1.6910    0.0000 C   0  0  0  0  0  0  0  0  0  0  0  0
   -0.0124   -2.1035    0.0000 C   0  0  0  0  0  0  0  0  0  0  0  0
   -0.0124   -2.9285    0.0000 C   0  0  0  0  0  0  0  0  0  0  0  0
    0.7021    1.6090    0.0000 C   0  0  0  0  0  0  0  0  0  0  0  0
   -0.7269   -3.3410    0.0000 C   0  0  0  0  0  0  0  0  0  0  0  0
   -1.4413   -2.9285    0.0000 C   0  0  0  0  0  0  0  0  0  0  0  0
   -1.4413   -2.1035    0.0000 C   0  0  0  0  0  0  0  0  0  0  0  0
    1.4165    2.0215    0.0000 C   0  0  0  0  0  0  0  0  0  0  0  0
    1.4165    2.8465    0.0000 C   0  0  0  0  0  0  0  0  0  0  0  0
   -0.0124    2.8465    0.0000 C   0  0  0  0  0  0  0  0  0  0  0  0
   -0.0124    2.0215    0.0000 C   0  0  0  0  0  0  0  0  0  0  0  0
  1 14  2  0  0  0  0
  1 15  1  0  0  0  0
  2  3  2  0  0  0  0
  2  6  1  0  0  0  0
  3  4  1  0  0  0  0
  4  5  1  0  0  0  0
  5  9  1  0  0  0  0
  6  7  2  0  0  0  0
  6 12  1  0  0  0  0
  7  8  1  0  0  0  0
  8 10  2  0  0  0  0
  9 13  2  0  0  0  0
  9 16  1  0  0  0  0
 10 11  1  0  0  0  0
 11 12  2  0  0  0  0
 13 14  1  0  0  0  0
 15 16  2  0  0  0  0
M  END
> <DRUGBANK_ID>
DB02939

> <DRUG_GROUPS>
experimental

> <GENERIC_NAME>
[(1e)-4-Phenylbut-1-Enyl]Benzene

> <CHEMICAL_FORMULA>
C16H16

> <MOLECULAR_WEIGHT>
208.2982

> <EXACT_MASS>
208.125200512

> <IUPAC_NAME>
[(1E)-4-phenylbut-1-en-1-yl]benzene

> <IUPAC_TRADITIONAL_NAME>
[(1E)-4-phenylbut-1-en-1-yl]benzene

> <INCHI_IDENTIFIER>
InChI=1S/C16H16/c1-3-9-15(10-4-1)13-7-8-14-16-11-5-2-6-12-16/h1-7,9-13H,8,14H2/b13-7+

> <INCHI_KEY>
InChIKey=NJJOGKAVAWZLAU-NTUHNPAUSA-N

> <SMILES>
C(CC1=CC=CC=C1)\C=C\C1=CC=CC=C1

> <JCHEM_ACCEPTOR_COUNT>
0

> <JCHEM_DONOR_COUNT>
0

> <JCHEM_PHYSIOLOGICAL_CHARGE>
0

> <ALOGPS_LOGP>
5.49

> <JCHEM_LOGP>
5.12

> <ALOGPS_LOGS>
-5.8

> <JCHEM_POLARIZABILITY>
25.46

> <JCHEM_POLAR_SURFACE_AREA>
0

> <JCHEM_REFRACTIVITY>
70.71

> <JCHEM_ROTATABLE_BOND_COUNT>
4

> <ALOGPS_SOLUBILITY>
3.09e-04 g/l __ 

$$$$
