
  Mrv0541 02231216082D          

  6  6  0  0  0  0            999 V2000
    0.5678    1.9393    0.0000 N   0  0  0  0  0  0  0  0  0  0  0  0
    0.5678    1.1143    0.0000 C   0  0  0  0  0  0  0  0  0  0  0  0
    1.2352    0.6294    0.0000 N   0  0  0  0  0  0  0  0  0  0  0  0
    0.9803   -0.1553    0.0000 C   0  0  0  0  0  0  0  0  0  0  0  0
    0.1553   -0.1553    0.0000 C   0  0  0  0  0  0  0  0  0  0  0  0
   -0.0997    0.6294    0.0000 S   0  0  0  0  0  0  0  0  0  0  0  0
  1  2  1  0  0  0  0
  2  3  2  0  0  0  0
  3  4  1  0  0  0  0
  4  5  1  0  0  0  0
  5  6  1  0  0  0  0
  2  6  1  0  0  0  0
M  END
> <DRUGBANK_ID>
DB02335

> <DRUG_GROUPS>
experimental

> <GENERIC_NAME>
2-Aminothiazoline

> <CHEMICAL_FORMULA>
C3H6N2S

> <MOLECULAR_WEIGHT>
102.158

> <EXACT_MASS>
102.025168892

> <IUPAC_NAME>
4,5-dihydro-1,3-thiazol-2-amine

> <IUPAC_TRADITIONAL_NAME>
2-aminothiazoline

> <INCHI_IDENTIFIER>
InChI=1S/C3H6N2S/c4-3-5-1-2-6-3/h1-2H2,(H2,4,5)

> <INCHI_KEY>
InChIKey=REGFWZVTTFGQOJ-UHFFFAOYSA-N

> <SMILES>
NC1=NCCS1

> <JCHEM_ACCEPTOR_COUNT>
2

> <JCHEM_DONOR_COUNT>
1

> <JCHEM_BASIC_PKA>
9.3

> <JCHEM_PHYSIOLOGICAL_CHARGE>
1

> <ALOGPS_LOGP>
-0.24

> <JCHEM_LOGP>
0.21

> <ALOGPS_LOGS>
-0.92

> <JCHEM_POLARIZABILITY>
10.08

> <JCHEM_POLAR_SURFACE_AREA>
38.38

> <JCHEM_REFRACTIVITY>
27.7

> <JCHEM_ROTATABLE_BOND_COUNT>
0

> <ALOGPS_SOLUBILITY>
1.22e+01 g/l __ 

$$$$
