SBR
  Mrv0541 02231216142D          

 27 29  0  0  0  0            999 V2000
   -1.3804   -0.4562    0.0000 C   0  0  0  0  0  0  0  0  0  0  0  0
   -0.6659   -0.0437    0.0000 C   0  0  1  0  0  0  0  0  0  0  0  0
    0.0485   -0.4562    0.0000 C   0  0  0  0  0  0  0  0  0  0  0  0
    0.7630   -0.0437    0.0000 N   0  0  0  0  0  0  0  0  0  0  0  0
    1.4775   -0.4562    0.0000 C   0  0  0  0  0  0  0  0  0  0  0  0
    1.4775   -1.2812    0.0000 O   0  0  0  0  0  0  0  0  0  0  0  0
    2.1920   -0.0437    0.0000 C   0  0  0  0  0  0  0  0  0  0  0  0
    2.1920    0.7813    0.0000 C   0  0  0  0  0  0  0  0  0  0  0  0
    2.9064    1.1938    0.0000 C   0  0  0  0  0  0  0  0  0  0  0  0
    3.6209    0.7813    0.0000 C   0  0  0  0  0  0  0  0  0  0  0  0
    3.6209   -0.0437    0.0000 C   0  0  0  0  0  0  0  0  0  0  0  0
    2.9064   -0.4562    0.0000 C   0  0  0  0  0  0  0  0  0  0  0  0
    4.3354    1.1938    0.0000 S   0  0  0  0  0  0  0  0  0  0  0  0
    5.0498    1.6063    0.0000 O   0  0  0  0  0  0  0  0  0  0  0  0
    3.9229    1.9083    0.0000 O   0  0  0  0  0  0  0  0  0  0  0  0
    4.7479    0.4794    0.0000 N   0  0  0  0  0  0  0  0  0  0  0  0
   -2.0949   -0.0437    0.0000 N   0  0  0  0  0  0  0  0  0  0  0  0
   -2.1811    0.7768    0.0000 C   0  0  0  0  0  0  0  0  0  0  0  0
   -2.9881    0.9483    0.0000 C   0  0  0  0  0  0  0  0  0  0  0  0
   -2.8485   -0.3792    0.0000 C   0  0  0  0  0  0  0  0  0  0  0  0
   -3.1035   -1.1639    0.0000 C   0  0  0  0  0  0  0  0  0  0  0  0
   -3.9105   -1.3354    0.0000 C   0  0  0  0  0  0  0  0  0  0  0  0
   -4.4625   -0.7223    0.0000 C   0  0  0  0  0  0  0  0  0  0  0  0
   -4.2076    0.0623    0.0000 C   0  0  0  0  0  0  0  0  0  0  0  0
   -3.4006    0.2339    0.0000 C   0  0  0  0  0  0  0  0  0  0  0  0
   -0.6659    0.7813    0.0000 C   0  0  0  0  0  0  0  0  0  0  0  0
   -0.6659   -0.6276    0.0000 H   0  0  0  0  0  0  0  0  0  0  0  0
  1  2  1  0  0  0  0
  1 17  1  0  0  0  0
  2  3  1  0  0  0  0
  2 26  1  1  0  0  0
  2 27  1  1  0  0  0
  3  4  1  0  0  0  0
  4  5  1  0  0  0  0
  5  6  2  0  0  0  0
  5  7  1  0  0  0  0
  7  8  2  0  0  0  0
  7 12  1  0  0  0  0
  8  9  1  0  0  0  0
  9 10  2  0  0  0  0
 10 11  1  0  0  0  0
 10 13  1  0  0  0  0
 11 12  2  0  0  0  0
 13 14  2  0  0  0  0
 13 15  2  0  0  0  0
 13 16  1  0  0  0  0
 17 18  1  0  0  0  0
 17 20  1  0  0  0  0
 18 19  2  0  0  0  0
 19 25  1  0  0  0  0
 20 21  2  0  0  0  0
 20 25  1  0  0  0  0
 21 22  1  0  0  0  0
 22 23  2  0  0  0  0
 23 24  1  0  0  0  0
 24 25  2  0  0  0  0
M  END
> <DRUGBANK_ID>
DB02479

> <DRUG_GROUPS>
experimental

> <GENERIC_NAME>
(R)-N-(3-Indol-1-Yl-2-Methyl-Propyl)-4-Sulfamoyl-Benzamide

> <CHEMICAL_FORMULA>
C19H21N3O3S

> <MOLECULAR_WEIGHT>
371.453

> <EXACT_MASS>
371.130362243

> <IUPAC_NAME>
N-[(2R)-2-(1H-indol-1-ylmethyl)propyl]-4-sulfamoylbenzamide

> <IUPAC_TRADITIONAL_NAME>
N-[(2R)-2-(indol-1-ylmethyl)propyl]-4-sulfamoylbenzamide

> <INCHI_IDENTIFIER>
InChI=1S/C19H21N3O3S/c1-14(13-22-11-10-15-4-2-3-5-18(15)22)12-21-19(23)16-6-8-17(9-7-16)26(20,24)25/h2-11,14H,12-13H2,1H3,(H,21,23)(H2,20,24,25)/t14-/m1/s1

> <INCHI_KEY>
InChIKey=ZFWHOUCRVSOZJE-CQSZACIVSA-N

> <SMILES>
[H][C@@](C)(CNC(=O)C1=CC=C(C=C1)S(N)(=O)=O)CN1C=CC2=CC=CC=C12

> <JCHEM_ACCEPTOR_COUNT>
3

> <JCHEM_DONOR_COUNT>
2

> <JCHEM_ACIDIC_PKA>
9.95

> <JCHEM_BASIC_PKA>
-0.47

> <JCHEM_PHYSIOLOGICAL_CHARGE>
0

> <ALOGPS_LOGP>
2.71

> <JCHEM_LOGP>
2.32

> <ALOGPS_LOGS>
-4

> <JCHEM_POLARIZABILITY>
39.42

> <JCHEM_POLAR_SURFACE_AREA>
94.19

> <JCHEM_REFRACTIVITY>
101.55

> <JCHEM_ROTATABLE_BOND_COUNT>
6

> <ALOGPS_SOLUBILITY>
4.11e-02 g/l __ 

$$$$
