
  Mrv0541 02231216142D          

 10 10  0  0  0  0            999 V2000
   -0.7145    3.7125    0.0000 O   0  0  0  0  0  0  0  0  0  0  0  0
    0.0000    3.3000    0.0000 C   0  0  0  0  0  0  0  0  0  0  0  0
    0.0000    2.4750    0.0000 N   0  0  0  0  0  0  0  0  0  0  0  0
    0.7145    2.0625    0.0000 C   0  0  0  0  0  0  0  0  0  0  0  0
    0.7145    1.2375    0.0000 C   0  0  0  0  0  0  0  0  0  0  0  0
    1.4289    0.8250    0.0000 C   0  0  0  0  0  0  0  0  0  0  0  0
    1.4289    0.0000    0.0000 C   0  0  0  0  0  0  0  0  0  0  0  0
    0.7145   -0.4125    0.0000 C   0  0  0  0  0  0  0  0  0  0  0  0
    0.0000    0.0000    0.0000 C   0  0  0  0  0  0  0  0  0  0  0  0
    0.0000    0.8250    0.0000 C   0  0  0  0  0  0  0  0  0  0  0  0
  1  2  2  0  0  0  0
  2  3  1  0  0  0  0
  3  4  1  0  0  0  0
  4  5  1  0  0  0  0
  5  6  2  0  0  0  0
  6  7  1  0  0  0  0
  7  8  2  0  0  0  0
  8  9  1  0  0  0  0
  9 10  2  0  0  0  0
  5 10  1  0  0  0  0
M  END
> <DRUGBANK_ID>
DB02481

> <DRUG_GROUPS>
experimental

> <GENERIC_NAME>
N-Benzylformamide

> <CHEMICAL_FORMULA>
C8H9NO

> <MOLECULAR_WEIGHT>
135.1632

> <EXACT_MASS>
135.068413915

> <IUPAC_NAME>
N-benzylformamide

> <IUPAC_TRADITIONAL_NAME>
N-benzylformamide

> <INCHI_IDENTIFIER>
InChI=1S/C8H9NO/c10-7-9-6-8-4-2-1-3-5-8/h1-5,7H,6H2,(H,9,10)

> <INCHI_KEY>
InChIKey=IIBOGKHTXBPGEI-UHFFFAOYSA-N

> <SMILES>
O=CNCC1=CC=CC=C1

> <JCHEM_ACCEPTOR_COUNT>
1

> <JCHEM_DONOR_COUNT>
1

> <JCHEM_ACIDIC_PKA>
16.11

> <JCHEM_BASIC_PKA>
-0.96

> <JCHEM_PHYSIOLOGICAL_CHARGE>
0

> <ALOGPS_LOGP>
1.08

> <JCHEM_LOGP>
0.87

> <ALOGPS_LOGS>
-1.5

> <JCHEM_POLARIZABILITY>
14.42

> <JCHEM_POLAR_SURFACE_AREA>
29.1

> <JCHEM_REFRACTIVITY>
39.48

> <JCHEM_ROTATABLE_BOND_COUNT>
2

> <ALOGPS_SOLUBILITY>
3.97e+00 g/l __ 

$$$$
