
  Mrv0541 02231216092D          

 19 18  0  0  0  0            999 V2000
    9.2368   -2.0329    0.0000 C   0  0  0  0  0  0  0  0  0  0  0  0
    9.2368   -2.8579    0.0000 N   0  0  0  0  0  0  0  0  0  0  0  0
    8.5224   -3.2704    0.0000 C   0  0  0  0  0  0  0  0  0  0  0  0
    7.8079   -2.8579    0.0000 C   0  0  0  0  0  0  0  0  0  0  0  0
    7.0934   -3.2704    0.0000 O   0  0  0  0  0  0  0  0  0  0  0  0
    6.3789   -2.8579    0.0000 P   0  0  2  0  0  0  0  0  0  0  0  0
    5.9664   -3.5724    0.0000 O   0  5  0  0  0  0  0  0  0  0  0  0
    6.7914   -2.1434    0.0000 O   0  0  0  0  0  0  0  0  0  0  0  0
    5.6645   -2.4454    0.0000 O   0  0  0  0  0  0  0  0  0  0  0  0
    4.9500   -2.8579    0.0000 P   0  0  0  0  0  0  0  0  0  0  0  0
    4.2355   -3.2704    0.0000 O   0  5  0  0  0  0  0  0  0  0  0  0
    5.3625   -3.5724    0.0000 O   0  5  0  0  0  0  0  0  0  0  0  0
    4.5375   -2.1434    0.0000 O   0  0  0  0  0  0  0  0  0  0  0  0
    9.9513   -3.2704    0.0000 C   0  0  0  0  0  0  0  0  0  0  0  0
   10.6658   -2.8579    0.0000 C   0  0  0  0  0  0  0  0  0  0  0  0
   11.3802   -3.2704    0.0000 C   0  0  0  0  0  0  0  0  0  0  0  0
   12.0947   -2.8579    0.0000 C   0  0  0  0  0  0  0  0  0  0  0  0
   12.0947   -2.0329    0.0000 C   0  0  0  0  0  0  0  0  0  0  0  0
   12.8092   -3.2704    0.0000 C   0  0  0  0  0  0  0  0  0  0  0  0
  1  2  1  0  0  0  0
  2  3  1  0  0  0  0
  3  4  1  0  0  0  0
  4  5  1  0  0  0  0
  6  5  1  1  0  0  0
  6  7  1  6  0  0  0
  6  8  2  0  0  0  0
  6  9  1  0  0  0  0
  9 10  1  0  0  0  0
 10 11  1  0  0  0  0
 10 12  1  0  0  0  0
 10 13  2  0  0  0  0
  2 14  1  0  0  0  0
 14 15  1  0  0  0  0
 15 16  1  0  0  0  0
 16 17  2  0  0  0  0
 17 18  1  0  0  0  0
 17 19  1  0  0  0  0
M  END
> <DRUGBANK_ID>
DB02369

> <DRUG_GROUPS>
experimental

> <GENERIC_NAME>
3-Aza-2,3-Dihydrogeranyl Diphosphate

> <CHEMICAL_FORMULA>
C9H18NO7P2

> <MOLECULAR_WEIGHT>
314.1892

> <EXACT_MASS>
314.055849959

> <IUPAC_NAME>
{[(S)-(2-[methyl(4-methylpent-3-en-1-yl)amino]ethyl phosphonato)]oxy}phosphonate

> <IUPAC_TRADITIONAL_NAME>
[(S)-(2-[methyl(4-methylpent-3-en-1-yl)amino]ethyl phosphonato)]oxyphosphonate

> <INCHI_IDENTIFIER>
InChI=1S/C9H21NO7P2/c1-9(2)5-4-6-10(3)7-8-16-19(14,15)17-18(11,12)13/h5H,4,6-8H2,1-3H3,(H,14,15)(H2,11,12,13)/p-3

> <INCHI_KEY>
InChIKey=UWHNDWYDKGVRGE-UHFFFAOYSA-K

> <SMILES>
CN(CCO[P@]([O-])(=O)OP([O-])([O-])=O)CCC=C(C)C

> <JCHEM_ACCEPTOR_COUNT>
6

> <JCHEM_DONOR_COUNT>
0

> <JCHEM_ACIDIC_PKA>
1.76

> <JCHEM_BASIC_PKA>
9.6

> <JCHEM_PHYSIOLOGICAL_CHARGE>
-1

> <ALOGPS_LOGP>
1.18

> <JCHEM_LOGP>
-1.1

> <ALOGPS_LOGS>
-1.1

> <JCHEM_POLARIZABILITY>
28.2

> <JCHEM_POLAR_SURFACE_AREA>
125.02

> <JCHEM_REFRACTIVITY>
68.53

> <JCHEM_ROTATABLE_BOND_COUNT>
9

> <ALOGPS_SOLUBILITY>
2.79e+01 g/l __ 

$$$$
