
  Mrv0541 02231216282D          

 15 15  0  0  1  0            999 V2000
    2.8579    2.4750    0.0000 C   0  0  0  0  0  0  0  0  0  0  0  0
    2.1434    2.0625    0.0000 C   0  0  0  0  0  0  0  0  0  0  0  0
    1.4289    2.4750    0.0000 O   0  0  0  0  0  0  0  0  0  0  0  0
    2.1434    1.2375    0.0000 N   0  0  0  0  0  0  0  0  0  0  0  0
    1.4289    0.8250    0.0000 C   0  0  2  0  0  0  0  0  0  0  0  0
    1.4289    0.0000    0.0000 C   0  0  1  0  0  0  0  0  0  0  0  0
    2.1434   -0.4125    0.0000 O   0  0  0  0  0  0  0  0  0  0  0  0
    0.7145   -0.4125    0.0000 C   0  0  2  0  0  0  0  0  0  0  0  0
    0.7145   -1.2375    0.0000 O   0  0  0  0  0  0  0  0  0  0  0  0
    0.0000    0.0000    0.0000 C   0  0  1  0  0  0  0  0  0  0  0  0
   -0.7145   -0.4125    0.0000 C   0  0  0  0  0  0  0  0  0  0  0  0
   -0.7145   -1.2375    0.0000 O   0  0  0  0  0  0  0  0  0  0  0  0
    0.0000    0.8250    0.0000 O   0  0  0  0  0  0  0  0  0  0  0  0
    0.7145    1.2375    0.0000 C   0  0  0  0  0  0  0  0  0  0  0  0
    0.7145    2.0625    0.0000 O   0  0  0  0  0  0  0  0  0  0  0  0
  1  2  1  0  0  0  0
  2  3  2  0  0  0  0
  2  4  1  0  0  0  0
  5  4  1  6  0  0  0
  5  6  1  0  0  0  0
  6  7  1  1  0  0  0
  6  8  1  0  0  0  0
  8  9  1  6  0  0  0
  8 10  1  0  0  0  0
 10 11  1  1  0  0  0
 11 12  1  0  0  0  0
 10 13  1  0  0  0  0
 13 14  1  0  0  0  0
  5 14  1  0  0  0  0
 14 15  2  0  0  0  0
M  END
> <DRUGBANK_ID>
DB02813

> <DRUG_GROUPS>
experimental

> <GENERIC_NAME>
2-Acetamido-2-Deoxy-D-Glucono-1,5-Lactone

> <CHEMICAL_FORMULA>
C8H13NO6

> <MOLECULAR_WEIGHT>
219.1919

> <EXACT_MASS>
219.074287153

> <IUPAC_NAME>
N-[(3R,4R,5S,6R)-4,5-dihydroxy-6-(hydroxymethyl)-2-oxooxan-3-yl]acetamide

> <IUPAC_TRADITIONAL_NAME>
N-[(3R,4R,5S,6R)-4,5-dihydroxy-6-(hydroxymethyl)-2-oxooxan-3-yl]acetamide

> <INCHI_IDENTIFIER>
InChI=1S/C8H13NO6/c1-3(11)9-5-7(13)6(12)4(2-10)15-8(5)14/h4-7,10,12-13H,2H2,1H3,(H,9,11)/t4-,5-,6-,7-/m1/s1

> <INCHI_KEY>
InChIKey=NELQYZRSPDCGRQ-DBRKOABJSA-N

> <SMILES>
CC(=O)N[C@@H]1[C@@H](O)[C@H](O)[C@@H](CO)OC1=O

> <JCHEM_ACCEPTOR_COUNT>
5

> <JCHEM_DONOR_COUNT>
4

> <JCHEM_ACIDIC_PKA>
11.6

> <JCHEM_BASIC_PKA>
-1.3

> <JCHEM_PHYSIOLOGICAL_CHARGE>
0

> <ALOGPS_LOGP>
-2

> <JCHEM_LOGP>
-3

> <ALOGPS_LOGS>
0.03

> <JCHEM_POLARIZABILITY>
20.29

> <JCHEM_POLAR_SURFACE_AREA>
116.09

> <JCHEM_REFRACTIVITY>
45.88

> <JCHEM_ROTATABLE_BOND_COUNT>
2

> <ALOGPS_SOLUBILITY>
2.33e+02 g/l __ 

$$$$
