
  Mrv0541 02231216242D          

  6  6  0  0  0  0            999 V2000
    0.5678    1.9393    0.0000 I   0  0  0  0  0  0  0  0  0  0  0  0
    0.5678    1.1143    0.0000 C   0  0  0  0  0  0  0  0  0  0  0  0
    1.2352    0.6294    0.0000 C   0  0  0  0  0  0  0  0  0  0  0  0
    0.9803   -0.1553    0.0000 N   0  0  0  0  0  0  0  0  0  0  0  0
    0.1553   -0.1553    0.0000 N   0  0  0  0  0  0  0  0  0  0  0  0
   -0.0997    0.6294    0.0000 C   0  0  0  0  0  0  0  0  0  0  0  0
  1  2  1  0  0  0  0
  2  3  4  0  0  0  0
  3  4  4  0  0  0  0
  4  5  4  0  0  0  0
  5  6  4  0  0  0  0
  2  6  4  0  0  0  0
M  END
> <DRUGBANK_ID>
DB02721

> <DRUG_GROUPS>
experimental

> <GENERIC_NAME>
4-Iodopyrazole

> <CHEMICAL_FORMULA>
C3H2IN2

> <MOLECULAR_WEIGHT>
192.9659

> <EXACT_MASS>
192.926266494

> <IUPAC_NAME>
4-iodopyrazole

> <IUPAC_TRADITIONAL_NAME>
4-iodopyrazole

> <SMILES>
Ic1cnnc1

> <JCHEM_ACCEPTOR_COUNT>
2

> <JCHEM_DONOR_COUNT>
0

> <JCHEM_BASIC_PKA>
1.73

> <JCHEM_PHYSIOLOGICAL_CHARGE>
0

> <ALOGPS_LOGP>
0.94

> <JCHEM_LOGP>
0.38

> <ALOGPS_LOGS>
-1.2

> <JCHEM_POLARIZABILITY>
11.27

> <JCHEM_POLAR_SURFACE_AREA>
25.78

> <JCHEM_REFRACTIVITY>
32.78

> <JCHEM_ROTATABLE_BOND_COUNT>
0

> <ALOGPS_SOLUBILITY>
1.18e+01 g/l __ 

$$$$
