
  Mrv0541 02231216072D          

 10  9  0  0  0  0            999 V2000
    2.2836    2.1434    0.0000 O   0  0  0  0  0  0  0  0  0  0  0  0
    2.9980    2.5559    0.0000 C   0  0  0  0  0  0  0  0  0  0  0  0
    3.7125    2.1434    0.0000 C   0  0  0  0  0  0  0  0  0  0  0  0
    4.4270    2.5559    0.0000 O   0  0  0  0  0  0  0  0  0  0  0  0
    5.1414    2.1434    0.0000 C   0  0  0  0  0  0  0  0  0  0  0  0
    5.8559    2.5559    0.0000 C   0  0  0  0  0  0  0  0  0  0  0  0
    6.5704    2.1434    0.0000 O   0  0  0  0  0  0  0  0  0  0  0  0
    7.2849    2.5559    0.0000 C   0  0  0  0  0  0  0  0  0  0  0  0
    7.9993    2.1434    0.0000 C   0  0  0  0  0  0  0  0  0  0  0  0
    8.7138    2.5559    0.0000 O   0  0  0  0  0  0  0  0  0  0  0  0
  1  2  1  0  0  0  0
  2  3  1  0  0  0  0
  3  4  1  0  0  0  0
  4  5  1  0  0  0  0
  5  6  1  0  0  0  0
  6  7  1  0  0  0  0
  7  8  1  0  0  0  0
  8  9  1  0  0  0  0
  9 10  1  0  0  0  0
M  END
> <DRUGBANK_ID>
DB02327

> <DRUG_GROUPS>
experimental

> <GENERIC_NAME>
2-[2-(2-Hydroxy-Ethoxy)-Ethoxy]-Ethanol

> <CHEMICAL_FORMULA>
C6H14O4

> <MOLECULAR_WEIGHT>
150.173

> <EXACT_MASS>
150.089208936

> <IUPAC_NAME>
2-[2-(2-hydroxyethoxy)ethoxy]ethan-1-ol

> <IUPAC_TRADITIONAL_NAME>
triethylene glycol

> <INCHI_IDENTIFIER>
InChI=1S/C6H14O4/c7-1-3-9-5-6-10-4-2-8/h7-8H,1-6H2

> <INCHI_KEY>
InChIKey=ZIBGPFATKBEMQZ-UHFFFAOYSA-N

> <SMILES>
OCCOCCOCCO

> <JCHEM_ACCEPTOR_COUNT>
4

> <JCHEM_DONOR_COUNT>
2

> <JCHEM_ACIDIC_PKA>
14.82

> <JCHEM_BASIC_PKA>
-2.7

> <JCHEM_PHYSIOLOGICAL_CHARGE>
0

> <ALOGPS_LOGP>
-1.1

> <JCHEM_LOGP>
-1.3

> <ALOGPS_LOGS>
0.35

> <JCHEM_POLARIZABILITY>
16.45

> <JCHEM_POLAR_SURFACE_AREA>
58.92

> <JCHEM_REFRACTIVITY>
36.64

> <JCHEM_ROTATABLE_BOND_COUNT>
7

> <ALOGPS_SOLUBILITY>
3.36e+02 g/l __ 

$$$$
