
  Mrv0541 02231216352D          

 17 18  0  0  1  0            999 V2000
    2.5070   -1.7309    0.0000 O   0  0  0  0  0  0  0  0  0  0  0  0
    2.9195   -1.0164    0.0000 C   0  0  0  0  0  0  0  0  0  0  0  0
    2.5070   -0.3020    0.0000 C   0  0  1  0  0  0  0  0  0  0  0  0
    1.6820   -0.3020    0.0000 O   0  0  0  0  0  0  0  0  0  0  0  0
    1.2695    0.4125    0.0000 C   0  0  1  0  0  0  0  0  0  0  0  0
    0.7846   -0.2549    0.0000 N   0  0  0  0  0  0  0  0  0  0  0  0
    0.0000    0.0000    0.0000 C   0  0  0  0  0  0  0  0  0  0  0  0
   -0.6674   -0.4849    0.0000 S   0  0  0  0  0  0  0  0  0  0  0  0
    0.0000    0.8250    0.0000 N   0  0  0  0  0  0  0  0  0  0  0  0
    0.7846    1.0799    0.0000 C   0  0  0  0  0  0  0  0  0  0  0  0
    1.0396    1.8646    0.0000 O   0  0  0  0  0  0  0  0  0  0  0  0
    1.6820    1.1270    0.0000 C   0  0  2  0  0  0  0  0  0  0  0  0
    1.5105    1.9339    0.0000 O   0  0  0  0  0  0  0  0  0  0  0  0
    2.5070    1.1270    0.0000 C   0  0  1  0  0  0  0  0  0  0  0  0
    2.9195    1.8414    0.0000 O   0  0  0  0  0  0  0  0  0  0  0  0
    2.9195    0.4125    0.0000 C   0  0  2  0  0  0  0  0  0  0  0  0
    3.7445    0.4125    0.0000 O   0  0  0  0  0  0  0  0  0  0  0  0
  1  2  1  0  0  0  0
  3  2  1  1  0  0  0
  3  4  1  0  0  0  0
  5  4  1  1  0  0  0
  5  6  1  0  0  0  0
  6  7  1  0  0  0  0
  7  8  2  0  0  0  0
  7  9  1  0  0  0  0
  9 10  1  0  0  0  0
  5 10  1  0  0  0  0
 10 11  2  0  0  0  0
  5 12  1  0  0  0  0
 12 13  1  6  0  0  0
 12 14  1  0  0  0  0
 14 15  1  1  0  0  0
 14 16  1  0  0  0  0
  3 16  1  0  0  0  0
 16 17  1  6  0  0  0
M  END
> <DRUGBANK_ID>
DB02964

> <DRUG_GROUPS>
experimental

> <GENERIC_NAME>
8,9,10-Trihydroxy-7-Hydroxymethyl-2-Thioxo-6-Oxa-1,3-Diaza-Spiro[4.5]Decan-4-One

> <CHEMICAL_FORMULA>
C8H12N2O6S

> <MOLECULAR_WEIGHT>
264.256

> <EXACT_MASS>
264.041606816

> <IUPAC_NAME>
(5R,7R,8S,9S,10R)-8,9,10-trihydroxy-7-(hydroxymethyl)-2-sulfanylidene-6-oxa-1,3-diazaspiro[4.5]decan-4-one

> <IUPAC_TRADITIONAL_NAME>
(5R,7R,8S,9S,10R)-8,9,10-trihydroxy-7-(hydroxymethyl)-2-sulfanylidene-6-oxa-1,3-diazaspiro[4.5]decan-4-one

> <INCHI_IDENTIFIER>
InChI=1S/C8H12N2O6S/c11-1-2-3(12)4(13)5(14)8(16-2)6(15)9-7(17)10-8/h2-5,11-14H,1H2,(H2,9,10,15,17)/t2-,3-,4+,5-,8-/m1/s1

> <INCHI_KEY>
InChIKey=OEWLGQKSTDZKFN-UXDJRKLDSA-N

> <SMILES>
OC[C@H]1O[C@]2(NC(=S)NC2=O)[C@H](O)[C@@H](O)[C@@H]1O

> <JCHEM_ACCEPTOR_COUNT>
6

> <JCHEM_DONOR_COUNT>
6

> <JCHEM_ACIDIC_PKA>
9.21

> <JCHEM_BASIC_PKA>
-3

> <JCHEM_PHYSIOLOGICAL_CHARGE>
0

> <ALOGPS_LOGP>
-1.6

> <JCHEM_LOGP>
-2.4

> <ALOGPS_LOGS>
-1.2

> <JCHEM_POLARIZABILITY>
23.69

> <JCHEM_POLAR_SURFACE_AREA>
131.28

> <JCHEM_REFRACTIVITY>
56.96

> <JCHEM_ROTATABLE_BOND_COUNT>
1

> <ALOGPS_SOLUBILITY>
1.62e+01 g/l __ 

$$$$
