
  Mrv0541 02231216372D          

  7  7  0  0  0  0            999 V2000
    0.7145    2.0625    0.0000 N   0  3  0  0  0  0  0  0  0  0  0  0
    0.7145    1.2375    0.0000 C   0  0  0  0  0  0  0  0  0  0  0  0
    1.4289    0.8250    0.0000 C   0  0  0  0  0  0  0  0  0  0  0  0
    1.4289    0.0000    0.0000 C   0  0  0  0  0  0  0  0  0  0  0  0
    0.7145   -0.4125    0.0000 C   0  0  0  0  0  0  0  0  0  0  0  0
    0.0000    0.0000    0.0000 C   0  0  0  0  0  0  0  0  0  0  0  0
    0.0000    0.8250    0.0000 C   0  0  0  0  0  0  0  0  0  0  0  0
  1  2  1  0  0  0  0
  2  3  1  0  0  0  0
  3  4  1  0  0  0  0
  4  5  1  0  0  0  0
  5  6  1  0  0  0  0
  6  7  1  0  0  0  0
  2  7  1  0  0  0  0
M  END
> <DRUGBANK_ID>
DB02995

> <DRUG_GROUPS>
experimental

> <GENERIC_NAME>
Cyclohexylammonium Ion

> <CHEMICAL_FORMULA>
C6H14N

> <MOLECULAR_WEIGHT>
100.1821

> <EXACT_MASS>
100.112624453

> <IUPAC_NAME>
cyclohexanaminium

> <IUPAC_TRADITIONAL_NAME>
cyclohexylammonium ion

> <INCHI_IDENTIFIER>
InChI=1S/C6H13N/c7-6-4-2-1-3-5-6/h6H,1-5,7H2/p+1

> <INCHI_KEY>
InChIKey=PAFZNILMFXTMIY-UHFFFAOYSA-O

> <SMILES>
[NH3+]C1CCCCC1

> <JCHEM_ACCEPTOR_COUNT>
0

> <JCHEM_DONOR_COUNT>
1

> <JCHEM_BASIC_PKA>
10.45

> <JCHEM_PHYSIOLOGICAL_CHARGE>
1

> <ALOGPS_LOGP>
-1.1

> <JCHEM_LOGP>
1.17

> <ALOGPS_LOGS>
-3.3

> <JCHEM_POLARIZABILITY>
12.76

> <JCHEM_POLAR_SURFACE_AREA>
27.64

> <JCHEM_REFRACTIVITY>
42.23

> <JCHEM_ROTATABLE_BOND_COUNT>
0

> <ALOGPS_SOLUBILITY>
7.40e-02 g/l __ 

$$$$
