
  Mrv0541 02231216302D          

 16 16  0  0  1  0            999 V2000
    2.1434    2.0625    0.0000 O   0  0  0  0  0  0  0  0  0  0  0  0
    2.1434    1.2375    0.0000 C   0  0  0  0  0  0  0  0  0  0  0  0
    1.4289    0.8250    0.0000 C   0  0  2  0  0  0  0  0  0  0  0  0
    1.4289    0.0000    0.0000 O   0  0  0  0  0  0  0  0  0  0  0  0
    0.7145   -0.4125    0.0000 C   0  0  2  0  0  0  0  0  0  0  0  0
    0.7145   -1.2375    0.0000 O   0  0  0  0  0  0  0  0  0  0  0  0
    0.0000    0.0000    0.0000 C   0  0  1  0  0  0  0  0  0  0  0  0
   -0.7145   -0.4125    0.0000 O   0  0  0  0  0  0  0  0  0  0  0  0
    0.0000    0.8250    0.0000 C   0  0  2  0  0  0  0  0  0  0  0  0
   -0.7145    1.2375    0.0000 O   0  0  0  0  0  0  0  0  0  0  0  0
    0.7145    1.2375    0.0000 C   0  0  1  0  0  0  0  0  0  0  0  0
    0.7145    2.0625    0.0000 O   0  0  0  0  0  0  0  0  0  0  0  0
    0.0000    2.4750    0.0000 S   0  0  0  0  0  0  0  0  0  0  0  0
   -0.7145    2.8875    0.0000 O   0  0  0  0  0  0  0  0  0  0  0  0
    0.4125    3.1895    0.0000 O   0  0  0  0  0  0  0  0  0  0  0  0
   -0.4125    1.7605    0.0000 O   0  0  0  0  0  0  0  0  0  0  0  0
  1  2  1  0  0  0  0
  3  2  1  6  0  0  0
  3  4  1  0  0  0  0
  4  5  1  0  0  0  0
  5  6  1  6  0  0  0
  5  7  1  0  0  0  0
  7  8  1  1  0  0  0
  7  9  1  0  0  0  0
  9 10  1  6  0  0  0
  9 11  1  0  0  0  0
  3 11  1  0  0  0  0
 11 12  1  1  0  0  0
 12 13  1  0  0  0  0
 13 14  1  0  0  0  0
 13 15  2  0  0  0  0
 13 16  2  0  0  0  0
M  END
> <DRUGBANK_ID>
DB02837

> <DRUG_GROUPS>
experimental

> <GENERIC_NAME>
O4-Sulfonylgalactose

> <CHEMICAL_FORMULA>
C6H12O9S

> <MOLECULAR_WEIGHT>
260.219

> <EXACT_MASS>
260.020202672

> <IUPAC_NAME>
[(2S,3R,4S,5S,6S)-4,5,6-trihydroxy-2-(hydroxymethyl)oxan-3-yl]oxidanesulfonic acid

> <IUPAC_TRADITIONAL_NAME>
O4-sulfonylgalactose

> <INCHI_IDENTIFIER>
InChI=1S/C6H12O9S/c7-1-2-5(15-16(11,12)13)3(8)4(9)6(10)14-2/h2-10H,1H2,(H,11,12,13)/t2-,3-,4-,5-,6-/m0/s1

> <INCHI_KEY>
InChIKey=LOTQRUGOUKUSEY-RUTHBDMASA-N

> <SMILES>
OC[C@@H]1O[C@H](O)[C@@H](O)[C@H](O)[C@H]1OS(O)(=O)=O

> <JCHEM_ACCEPTOR_COUNT>
8

> <JCHEM_DONOR_COUNT>
5

> <JCHEM_ACIDIC_PKA>
-2

> <JCHEM_BASIC_PKA>
-3

> <JCHEM_PHYSIOLOGICAL_CHARGE>
-1

> <ALOGPS_LOGP>
-2.1

> <JCHEM_LOGP>
-4.7

> <ALOGPS_LOGS>
-0.38

> <JCHEM_POLARIZABILITY>
21.44

> <JCHEM_POLAR_SURFACE_AREA>
153.75

> <JCHEM_REFRACTIVITY>
45.92

> <JCHEM_ROTATABLE_BOND_COUNT>
3

> <ALOGPS_SOLUBILITY>
1.07e+02 g/l __ 

$$$$
