
  Mrv0541 02231216062D          

  8  8  0  0  0  0            999 V2000
    2.1434   -0.4125    0.0000 N    0  0  0  0  0  0  0  0  0  0  0  0
    1.4289    0.0000    0.0000 C    0  0  0  0  0  0  0  0  0  0  0  0
    0.7145   -0.4125    0.0000 C    0  0  0  0  0  0  0  0  0  0  0  0
    0.0000    0.0000    0.0000 N    0  0  0  0  0  0  0  0  0  0  0  0
    0.0000    0.8250    0.0000 C    0  0  0  0  0  0  0  0  0  0  0  0
    0.7145    1.2375    0.0000 C    0  0  0  0  0  0  0  0  0  0  0  0
    0.7145    2.0625    0.0000 Cl   0  0  0  0  0  0  0  0  0  0  0  0
    1.4289    0.8250    0.0000 N    0  0  0  0  0  0  0  0  0  0  0  0
  1  2  1  0  0  0  0
  2  3  2  0  0  0  0
  3  4  1  0  0  0  0
  4  5  2  0  0  0  0
  5  6  1  0  0  0  0
  6  7  1  0  0  0  0
  6  8  2  0  0  0  0
  2  8  1  0  0  0  0
M  END
> <DRUGBANK_ID>
DB02297

> <DRUG_GROUPS>
experimental

> <GENERIC_NAME>
2-Amino-6-Chloropyrazine

> <CHEMICAL_FORMULA>
C4H4ClN3

> <MOLECULAR_WEIGHT>
129.548

> <EXACT_MASS>
129.00937485

> <IUPAC_NAME>
6-chloropyrazin-2-amine

> <IUPAC_TRADITIONAL_NAME>
2-amino-6-chloropyrazine

> <INCHI_IDENTIFIER>
InChI=1S/C4H4ClN3/c5-3-1-7-2-4(6)8-3/h1-2H,(H2,6,8)

> <INCHI_KEY>
InChIKey=JTPXVCKCLBROOJ-UHFFFAOYSA-N

> <SMILES>
NC1=CN=CC(Cl)=N1

> <JCHEM_ACCEPTOR_COUNT>
3

> <JCHEM_DONOR_COUNT>
1

> <JCHEM_ACIDIC_PKA>
19.58

> <JCHEM_BASIC_PKA>
-0.049

> <JCHEM_PHYSIOLOGICAL_CHARGE>
0

> <ALOGPS_LOGP>
0.63

> <JCHEM_LOGP>
0.13

> <ALOGPS_LOGS>
-0.37

> <JCHEM_POLARIZABILITY>
11.25

> <JCHEM_POLAR_SURFACE_AREA>
51.8

> <JCHEM_REFRACTIVITY>
32.62

> <JCHEM_ROTATABLE_BOND_COUNT>
0

> <ALOGPS_SOLUBILITY>
5.59e+01 g/l __ 

$$$$
