
  Mrv0541 02231216312D          

 43 46  0  0  0  0            999 V2000
   -4.0515    2.3092    0.0000 C   0  0  0  0  0  0  0  0  0  0  0  0
   -4.0515    1.4842    0.0000 C   0  0  0  0  0  0  0  0  0  0  0  0
   -4.7189    0.9993    0.0000 C   0  0  0  0  0  0  0  0  0  0  0  0
   -5.5035    1.2542    0.0000 C   0  0  0  0  0  0  0  0  0  0  0  0
   -6.1166    0.7022    0.0000 C   0  0  0  0  0  0  0  0  0  0  0  0
   -6.9013    0.9571    0.0000 C   0  0  0  0  0  0  0  0  0  0  0  0
   -7.5144    0.4051    0.0000 O   0  0  0  0  0  0  0  0  0  0  0  0
   -7.0728    1.7641    0.0000 O   0  0  0  0  0  0  0  0  0  0  0  0
   -4.4640    0.2147    0.0000 C   0  0  0  0  0  0  0  0  0  0  0  0
   -4.9489   -0.4528    0.0000 O   0  0  0  0  0  0  0  0  0  0  0  0
   -3.6390    0.2147    0.0000 N   0  0  0  0  0  0  0  0  0  0  0  0
   -3.3840    0.9993    0.0000 C   0  0  0  0  0  0  0  0  0  0  0  0
   -2.5994    1.2542    0.0000 C   0  0  0  0  0  0  0  0  0  0  0  0
   -1.9863    0.7022    0.0000 C   0  0  0  0  0  0  0  0  0  0  0  0
   -1.1794    0.8737    0.0000 N   0  0  0  0  0  0  0  0  0  0  0  0
   -0.7669    0.1593    0.0000 C   0  0  0  0  0  0  0  0  0  0  0  0
    0.0536    0.0730    0.0000 C   0  0  0  0  0  0  0  0  0  0  0  0
    0.5385    0.7405    0.0000 C   0  0  0  0  0  0  0  0  0  0  0  0
    0.2836    1.5251    0.0000 N   0  0  0  0  0  0  0  0  0  0  0  0
    0.9510    2.0100    0.0000 C   0  0  0  0  0  0  0  0  0  0  0  0
    0.9510    2.8350    0.0000 C   0  0  0  0  0  0  0  0  0  0  0  0
    0.2366    3.2475    0.0000 C   0  0  0  0  0  0  0  0  0  0  0  0
   -0.5171    2.9119    0.0000 N   0  0  0  0  0  0  0  0  0  0  0  0
   -1.0691    3.5250    0.0000 C   0  0  0  0  0  0  0  0  0  0  0  0
   -1.8896    3.4388    0.0000 O   0  0  0  0  0  0  0  0  0  0  0  0
   -0.6566    4.2395    0.0000 C   0  0  0  0  0  0  0  0  0  0  0  0
   -0.9922    4.9932    0.0000 C   0  0  0  0  0  0  0  0  0  0  0  0
   -1.8127    5.0794    0.0000 C   0  0  0  0  0  0  0  0  0  0  0  0
   -2.1482    5.8331    0.0000 C   0  0  0  0  0  0  0  0  0  0  0  0
   -1.6633    6.5005    0.0000 O   0  0  0  0  0  0  0  0  0  0  0  0
   -2.9687    5.9193    0.0000 O   0  0  0  0  0  0  0  0  0  0  0  0
    0.1503    4.0680    0.0000 C   0  0  0  0  0  0  0  0  0  0  0  0
    0.7634    4.6200    0.0000 C   0  0  0  0  0  0  0  0  0  0  0  0
    1.6185    1.5251    0.0000 C   0  0  0  0  0  0  0  0  0  0  0  0
    2.4031    1.7800    0.0000 C   0  0  0  0  0  0  0  0  0  0  0  0
    3.0162    1.2280    0.0000 C   0  0  0  0  0  0  0  0  0  0  0  0
    1.3635    0.7405    0.0000 C   0  0  0  0  0  0  0  0  0  0  0  0
    1.8485    0.0730    0.0000 C   0  0  0  0  0  0  0  0  0  0  0  0
   -1.3189   -0.4538    0.0000 C   0  0  0  0  0  0  0  0  0  0  0  0
   -1.1474   -1.2608    0.0000 C   0  0  0  0  0  0  0  0  0  0  0  0
   -1.7605   -1.8128    0.0000 C   0  0  0  0  0  0  0  0  0  0  0  0
   -2.0726   -0.1183    0.0000 C   0  0  0  0  0  0  0  0  0  0  0  0
   -2.7870   -0.5308    0.0000 C   0  0  0  0  0  0  0  0  0  0  0  0
  1  2  1  0  0  0  0
  2  3  2  0  0  0  0
  3  4  1  0  0  0  0
  4  5  1  0  0  0  0
  5  6  1  0  0  0  0
  6  7  1  0  0  0  0
  6  8  2  0  0  0  0
  3  9  1  0  0  0  0
  9 10  2  0  0  0  0
  9 11  1  0  0  0  0
 11 12  1  0  0  0  0
  2 12  1  0  0  0  0
 12 13  2  0  0  0  0
 13 14  1  0  0  0  0
 14 15  4  0  0  0  0
 15 16  4  0  0  0  0
 16 17  1  0  0  0  0
 17 18  2  0  0  0  0
 18 19  1  0  0  0  0
 19 20  1  0  0  0  0
 20 21  2  0  0  0  0
 21 22  1  0  0  0  0
 22 23  2  0  0  0  0
 23 24  1  0  0  0  0
 24 25  2  0  0  0  0
 24 26  1  0  0  0  0
 26 27  1  0  0  0  0
 27 28  1  0  0  0  0
 28 29  1  0  0  0  0
 29 30  1  0  0  0  0
 29 31  2  0  0  0  0
 26 32  2  0  0  0  0
 22 32  1  0  0  0  0
 32 33  1  0  0  0  0
 20 34  1  0  0  0  0
 34 35  1  0  0  0  0
 35 36  2  0  0  0  0
 34 37  2  0  0  0  0
 18 37  1  0  0  0  0
 37 38  1  0  0  0  0
 16 39  4  0  0  0  0
 39 40  1  0  0  0  0
 40 41  2  0  0  0  0
 39 42  4  0  0  0  0
 14 42  4  0  0  0  0
 42 43  1  0  0  0  0
M  END
> <DRUGBANK_ID>
DB02864

> <DRUG_GROUPS>
experimental

> <GENERIC_NAME>
Biliverdin Ix Gamma Chromophore

> <CHEMICAL_FORMULA>
C33H33N4O6

> <MOLECULAR_WEIGHT>
581.6383

> <EXACT_MASS>
581.240009808

> <IUPAC_NAME>
3-[(5Z)-5-[(5-{[(2Z,5Z)-5-{[3-(2-carboxyethyl)-4-methyl-2-oxo-2H-pyrrol-5-yl]methylidene}-4-ethenyl-3-methyl-2,5-dihydro-1H-pyrrol-2-ylidene]methyl}-4-ethenyl-3-methylpyrrol-2-yl)methylidene]-4-methyl-2-oxo-2,5-dihydro-1H-pyrrol-3-yl]propanoic acid

> <IUPAC_TRADITIONAL_NAME>
3-[(5Z)-5-[(5-{[(2Z,5Z)-5-{[4-(2-carboxyethyl)-3-methyl-5-oxopyrrol-2-yl]methylidene}-4-ethenyl-3-methyl-1H-pyrrol-2-ylidene]methyl}-4-ethenyl-3-methylpyrrol-2-yl)methylidene]-4-methyl-2-oxo-1H-pyrrol-3-yl]propanoic acid

> <SMILES>
CC1=C(CCC(O)=O)C(=O)N\C1=C/c1nc(\C=C2/N\C(=C/C3=NC(=O)C(CCC(O)=O)=C3C)C(C=C)=C2C)c(C=C)c1C

> <JCHEM_ACCEPTOR_COUNT>
9

> <JCHEM_DONOR_COUNT>
4

> <JCHEM_ACIDIC_PKA>
3.15

> <JCHEM_BASIC_PKA>
5.56

> <JCHEM_PHYSIOLOGICAL_CHARGE>
-2

> <ALOGPS_LOGP>
3.89

> <JCHEM_LOGP>
0.93

> <ALOGPS_LOGS>
-4.8

> <JCHEM_POLARIZABILITY>
64.02

> <JCHEM_POLAR_SURFACE_AREA>
158.05

> <JCHEM_REFRACTIVITY>
167.25

> <JCHEM_ROTATABLE_BOND_COUNT>
11

> <ALOGPS_SOLUBILITY>
1.03e-02 g/l __ 

$$$$
