34C
  Mrv0541 02231216272D          

 15 15  0  0  0  0            999 V2000
    2.2834    0.2792    0.0000 Cl   0  0  0  0  0  0  0  0  0  0  0  0
    1.5689   -0.1333    0.0000 C    0  0  0  0  0  0  0  0  0  0  0  0
    1.5689   -0.9583    0.0000 C    0  0  0  0  0  0  0  0  0  0  0  0
    0.8545   -1.3708    0.0000 C    0  0  0  0  0  0  0  0  0  0  0  0
    0.1400   -0.9583    0.0000 C    0  0  0  0  0  0  0  0  0  0  0  0
    0.1400   -0.1333    0.0000 C    0  0  0  0  0  0  0  0  0  0  0  0
    0.8545    0.2792    0.0000 C    0  0  0  0  0  0  0  0  0  0  0  0
    0.8545   -2.1958    0.0000 C    0  0  0  0  0  0  0  0  0  0  0  0
    0.1400   -2.6083    0.0000 C    0  0  0  0  0  0  0  0  0  0  0  0
    0.1400    1.5167    0.0000 C    0  0  0  0  0  0  0  0  0  0  0  0
    0.1400    2.3417    0.0000 C    0  0  0  0  0  0  0  0  0  0  0  0
   -0.5745    2.7542    0.0000 C    0  0  0  0  0  0  0  0  0  0  0  0
    0.8545    1.1042    0.0000 O    0  0  0  0  0  0  0  0  0  0  0  0
    0.1400   -3.4333    0.0000 O    0  0  0  0  0  0  0  0  0  0  0  0
   -0.5745   -2.1958    0.0000 O    0  0  0  0  0  0  0  0  0  0  0  0
  1  2  1  0  0  0  0
  2  3  2  0  0  0  0
  2  7  1  0  0  0  0
  3  4  1  0  0  0  0
  4  5  2  0  0  0  0
  4  8  1  0  0  0  0
  5  6  1  0  0  0  0
  6  7  2  0  0  0  0
  7 13  1  0  0  0  0
  8  9  1  0  0  0  0
  9 14  2  0  0  0  0
  9 15  1  0  0  0  0
 10 11  1  0  0  0  0
 10 13  1  0  0  0  0
 11 12  1  0  0  0  0
M  END
> <DRUGBANK_ID>
DB02773

> <DRUG_GROUPS>
experimental

> <GENERIC_NAME>
(3-Chloro-4-Propoxy-Phenyl)-Acetic Acid

> <CHEMICAL_FORMULA>
C11H13ClO3

> <MOLECULAR_WEIGHT>
228.672

> <EXACT_MASS>
228.055321989

> <IUPAC_NAME>
2-(3-chloro-4-propoxyphenyl)acetic acid

> <IUPAC_TRADITIONAL_NAME>
(3-chloro-4-propoxyphenyl)acetic acid

> <INCHI_IDENTIFIER>
InChI=1S/C11H13ClO3/c1-2-5-15-10-4-3-8(6-9(10)12)7-11(13)14/h3-4,6H,2,5,7H2,1H3,(H,13,14)

> <INCHI_KEY>
InChIKey=QEJHPAGTOOIBFT-UHFFFAOYSA-N

> <SMILES>
CCCOC1=CC=C(CC(O)=O)C=C1Cl

> <JCHEM_ACCEPTOR_COUNT>
3

> <JCHEM_DONOR_COUNT>
1

> <JCHEM_ACIDIC_PKA>
3.69

> <JCHEM_BASIC_PKA>
-4.9

> <JCHEM_PHYSIOLOGICAL_CHARGE>
-1

> <ALOGPS_LOGP>
3.21

> <JCHEM_LOGP>
2.94

> <ALOGPS_LOGS>
-3

> <JCHEM_POLARIZABILITY>
23.12

> <JCHEM_POLAR_SURFACE_AREA>
46.53

> <JCHEM_REFRACTIVITY>
57.91

> <JCHEM_ROTATABLE_BOND_COUNT>
5

> <ALOGPS_SOLUBILITY>
2.27e-01 g/l __ 

$$$$
