
  Mrv0541 02231216172D          

 55 57  0  0  1  0            999 V2000
  -19.0240    5.4220    0.0000 C   0  0  0  0  0  0  0  0  0  0  0  0
  -18.3321    4.9726    0.0000 C   0  0  0  0  0  0  0  0  0  0  0  0
  -17.5970    5.3471    0.0000 C   0  0  0  0  0  0  0  0  0  0  0  0
  -16.9051    4.8978    0.0000 C   0  0  0  0  0  0  0  0  0  0  0  0
  -16.1700    5.2722    0.0000 C   0  0  0  0  0  0  0  0  0  0  0  0
  -15.4782    4.8229    0.0000 C   0  0  0  0  0  0  0  0  0  0  0  0
  -15.5214    3.9990    0.0000 O   0  0  0  0  0  0  0  0  0  0  0  0
  -14.7431    5.1973    0.0000 S   0  0  0  0  0  0  0  0  0  0  0  0
  -14.0512    4.7480    0.0000 C   0  0  0  0  0  0  0  0  0  0  0  0
  -13.3161    5.1224    0.0000 C   0  0  0  0  0  0  0  0  0  0  0  0
  -12.6242    4.6731    0.0000 N   0  0  0  0  0  0  0  0  0  0  0  0
  -11.8891    5.0475    0.0000 C   0  0  0  0  0  0  0  0  0  0  0  0
  -11.8459    5.8714    0.0000 O   0  0  0  0  0  0  0  0  0  0  0  0
  -11.1972    4.5982    0.0000 C   0  0  0  0  0  0  0  0  0  0  0  0
  -10.4621    4.9726    0.0000 C   0  0  0  0  0  0  0  0  0  0  0  0
   -9.7703    4.5233    0.0000 N   0  0  0  0  0  0  0  0  0  0  0  0
   -9.0351    4.8978    0.0000 C   0  0  0  0  0  0  0  0  0  0  0  0
   -8.9919    5.7216    0.0000 O   0  0  0  0  0  0  0  0  0  0  0  0
   -8.3433    4.4484    0.0000 C   0  0  1  0  0  0  0  0  0  0  0  0
   -8.3865    3.6245    0.0000 O   0  0  0  0  0  0  0  0  0  0  0  0
   -7.6082    4.8229    0.0000 C   0  0  0  0  0  0  0  0  0  0  0  0
   -7.2337    4.0877    0.0000 C   0  0  0  0  0  0  0  0  0  0  0  0
   -7.9827    5.5580    0.0000 C   0  0  0  0  0  0  0  0  0  0  0  0
   -6.8731    5.1973    0.0000 C   0  0  0  0  0  0  0  0  0  0  0  0
   -6.1812    4.7480    0.0000 O   0  0  0  0  0  0  0  0  0  0  0  0
   -5.4461    5.1224    0.0000 P   0  0  2  0  0  0  0  0  0  0  0  0
   -5.0716    4.3873    0.0000 O   0  0  0  0  0  0  0  0  0  0  0  0
   -5.8206    5.8576    0.0000 O   0  0  0  0  0  0  0  0  0  0  0  0
   -4.7110    5.4969    0.0000 O   0  0  0  0  0  0  0  0  0  0  0  0
   -4.0191    5.0475    0.0000 P   0  0  1  0  0  0  0  0  0  0  0  0
   -4.4685    4.3557    0.0000 O   0  0  0  0  0  0  0  0  0  0  0  0
   -3.5697    5.7394    0.0000 O   0  0  0  0  0  0  0  0  0  0  0  0
   -3.3272    4.5982    0.0000 O   0  0  0  0  0  0  0  0  0  0  0  0
   -2.5921    4.9726    0.0000 C   0  0  0  0  0  0  0  0  0  0  0  0
   -1.9003    4.5233    0.0000 C   0  0  2  0  0  0  0  0  0  0  0  0
   -1.1300    4.8189    0.0000 O   0  0  0  0  0  0  0  0  0  0  0  0
   -0.6109    4.1777    0.0000 C   0  0  2  0  0  0  0  0  0  0  0  0
   -1.0603    3.4858    0.0000 C   0  0  2  0  0  0  0  0  0  0  0  0
   -0.7647    2.7156    0.0000 O   0  0  0  0  0  0  0  0  0  0  0  0
   -1.8571    3.6994    0.0000 C   0  0  1  0  0  0  0  0  0  0  0  0
   -2.4983    3.1803    0.0000 O   0  0  0  0  0  0  0  0  0  0  0  0
   -3.2685    3.4760    0.0000 P   0  0  0  0  0  0  0  0  0  0  0  0
   -2.9728    4.2461    0.0000 O   0  0  0  0  0  0  0  0  0  0  0  0
   -3.5642    2.7058    0.0000 O   0  0  0  0  0  0  0  0  0  0  0  0
   -4.0387    3.7717    0.0000 O   0  0  0  0  0  0  0  0  0  0  0  0
    0.2130    4.2208    0.0000 N   0  0  0  0  0  0  0  0  0  0  0  0
    0.7321    3.5796    0.0000 C   0  0  0  0  0  0  0  0  0  0  0  0
    1.5023    3.8752    0.0000 N   0  0  0  0  0  0  0  0  0  0  0  0
    1.4592    4.6991    0.0000 C   0  0  0  0  0  0  0  0  0  0  0  0
    0.6624    4.9127    0.0000 C   0  0  0  0  0  0  0  0  0  0  0  0
    0.4489    5.7096    0.0000 N   0  0  0  0  0  0  0  0  0  0  0  0
    1.0323    6.2929    0.0000 C   0  0  0  0  0  0  0  0  0  0  0  0
    1.8292    6.0793    0.0000 N   0  0  0  0  0  0  0  0  0  0  0  0
    2.0426    5.2824    0.0000 C   0  0  0  0  0  0  0  0  0  0  0  0
    2.8395    5.0688    0.0000 N   0  0  0  0  0  0  0  0  0  0  0  0
  1  2  1  0  0  0  0
  2  3  1  0  0  0  0
  3  4  1  0  0  0  0
  4  5  1  0  0  0  0
  5  6  1  0  0  0  0
  6  7  2  0  0  0  0
  6  8  1  0  0  0  0
  8  9  1  0  0  0  0
  9 10  1  0  0  0  0
 10 11  1  0  0  0  0
 11 12  1  0  0  0  0
 12 13  2  0  0  0  0
 12 14  1  0  0  0  0
 14 15  1  0  0  0  0
 15 16  1  0  0  0  0
 16 17  1  0  0  0  0
 17 18  2  0  0  0  0
 17 19  1  0  0  0  0
 19 20  1  6  0  0  0
 19 21  1  0  0  0  0
 21 22  1  0  0  0  0
 21 23  1  0  0  0  0
 21 24  1  0  0  0  0
 24 25  1  0  0  0  0
 26 25  1  6  0  0  0
 26 27  1  1  0  0  0
 26 28  2  0  0  0  0
 26 29  1  0  0  0  0
 30 29  1  1  0  0  0
 30 31  1  6  0  0  0
 30 32  2  0  0  0  0
 30 33  1  0  0  0  0
 33 34  1  0  0  0  0
 35 34  1  6  0  0  0
 35 36  1  0  0  0  0
 36 37  1  0  0  0  0
 37 38  1  0  0  0  0
 38 39  1  6  0  0  0
 38 40  1  0  0  0  0
 35 40  1  0  0  0  0
 40 41  1  1  0  0  0
 41 42  1  0  0  0  0
 42 43  1  0  0  0  0
 42 44  1  0  0  0  0
 42 45  2  0  0  0  0
 37 46  1  1  0  0  0
 46 47  1  0  0  0  0
 47 48  2  0  0  0  0
 48 49  1  0  0  0  0
 49 50  2  0  0  0  0
 46 50  1  0  0  0  0
 50 51  1  0  0  0  0
 51 52  2  0  0  0  0
 52 53  1  0  0  0  0
 53 54  2  0  0  0  0
 49 54  1  0  0  0  0
 54 55  1  0  0  0  0
M  END
> <DRUGBANK_ID>
DB02563

> <DRUG_GROUPS>
experimental

> <GENERIC_NAME>
Hexanoyl-Coenzyme A

> <CHEMICAL_FORMULA>
C27H46N7O17P3S

> <MOLECULAR_WEIGHT>
865.677

> <EXACT_MASS>
865.188373307

> <IUPAC_NAME>
{[(2S,3R,4R,5R)-5-(6-amino-9H-purin-9-yl)-2-({[({[(3S)-3-[(2-{[2-(hexanoylsulfanyl)ethyl]carbamoyl}ethyl)carbamoyl]-3-hydroxy-2,2-dimethylpropoxy](hydroxy)phosphoryl}oxy)(hydroxy)phosphoryl]oxy}methyl)-4-hydroxyoxolan-3-yl]oxy}phosphonic acid

> <IUPAC_TRADITIONAL_NAME>
[(2S,3R,4R,5R)-5-(6-aminopurin-9-yl)-2-[({[(3S)-3-[(2-{[2-(hexanoylsulfanyl)ethyl]carbamoyl}ethyl)carbamoyl]-3-hydroxy-2,2-dimethylpropoxy(hydroxy)phosphoryl]oxy(hydroxy)phosphoryl}oxy)methyl]-4-hydroxyoxolan-3-yl]oxyphosphonic acid

> <INCHI_IDENTIFIER>
InChI=1S/C27H46N7O17P3S/c1-4-5-6-7-18(36)55-11-10-29-17(35)8-9-30-25(39)22(38)27(2,3)13-48-54(45,46)51-53(43,44)47-12-16-21(50-52(40,41)42)20(37)26(49-16)34-15-33-19-23(28)31-14-32-24(19)34/h14-16,20-22,26,37-38H,4-13H2,1-3H3,(H,29,35)(H,30,39)(H,43,44)(H,45,46)(H2,28,31,32)(H2,40,41,42)/t16-,20+,21-,22+,26+/m0/s1

> <INCHI_KEY>
InChIKey=OEXFMSFODMQEPE-CGSNXLPNSA-N

> <SMILES>
CCCCCC(=O)SCCNC(=O)CCNC(=O)[C@@H](O)C(C)(C)CO[P@](O)(=O)O[P@@](O)(=O)OC[C@@H]1O[C@H]([C@H](O)[C@H]1OP(O)(O)=O)N1C=NC2=C1N=CN=C2N

> <JCHEM_ACCEPTOR_COUNT>
17

> <JCHEM_DONOR_COUNT>
9

> <JCHEM_ACIDIC_PKA>
0.83

> <JCHEM_BASIC_PKA>
4.95

> <JCHEM_PHYSIOLOGICAL_CHARGE>
-4

> <ALOGPS_LOGP>
0.07

> <JCHEM_LOGP>
-4.9

> <ALOGPS_LOGS>
-2.4

> <JCHEM_POLARIZABILITY>
79.56

> <JCHEM_POLAR_SURFACE_AREA>
363.63

> <JCHEM_REFRACTIVITY>
190.64

> <JCHEM_ROTATABLE_BOND_COUNT>
24

> <ALOGPS_SOLUBILITY>
3.67e+00 g/l __ 

$$$$
