113
  Mrv0541 02231216192D          

 25 27  0  0  0  0            999 V2000
    2.4567    0.7895    0.0000 C   0  0  0  0  0  0  0  0  0  0  0  0
    1.7422    1.2020    0.0000 C   0  0  0  0  0  0  0  0  0  0  0  0
    1.0278    0.7895    0.0000 C   0  0  0  0  0  0  0  0  0  0  0  0
    1.0278   -0.0355    0.0000 C   0  0  0  0  0  0  0  0  0  0  0  0
    1.7422   -0.4480    0.0000 C   0  0  0  0  0  0  0  0  0  0  0  0
    2.4567   -0.0355    0.0000 C   0  0  0  0  0  0  0  0  0  0  0  0
    0.3133    1.2020    0.0000 O   0  0  0  0  0  0  0  0  0  0  0  0
   -0.4012    0.7895    0.0000 C   0  0  0  0  0  0  0  0  0  0  0  0
   -0.4012   -0.0355    0.0000 C   0  0  0  0  0  0  0  0  0  0  0  0
    0.3133   -0.4480    0.0000 C   0  0  0  0  0  0  0  0  0  0  0  0
   -1.1156    1.2020    0.0000 C   0  0  0  0  0  0  0  0  0  0  0  0
   -1.8301    0.7895    0.0000 C   0  0  1  0  0  0  0  0  0  0  0  0
   -1.8301   -0.0355    0.0000 O   0  0  0  0  0  0  0  0  0  0  0  0
   -1.1156   -0.4480    0.0000 C   0  0  1  0  0  0  0  0  0  0  0  0
    3.1712   -0.4480    0.0000 O   0  0  0  0  0  0  0  0  0  0  0  0
    3.1712    1.2020    0.0000 O   0  0  0  0  0  0  0  0  0  0  0  0
    1.7422   -1.2730    0.0000 C   0  0  0  0  0  0  0  0  0  0  0  0
    2.4567   -1.6855    0.0000 O   0  0  0  0  0  0  0  0  0  0  0  0
   -1.1156   -1.2730    0.0000 O   0  0  0  0  0  0  0  0  0  0  0  0
   -1.8301   -1.6855    0.0000 C   0  0  0  0  0  0  0  0  0  0  0  0
   -2.5446    1.2020    0.0000 C   0  0  0  0  0  0  0  0  0  0  0  0
    1.0278   -1.6855    0.0000 O   0  0  0  0  0  0  0  0  0  0  0  0
    0.3133   -1.2730    0.0000 O   0  0  0  0  0  0  0  0  0  0  0  0
   -1.8301    1.3734    0.0000 H   0  0  0  0  0  0  0  0  0  0  0  0
   -0.6099   -0.7400    0.0000 H   0  0  0  0  0  0  0  0  0  0  0  0
  1  2  2  0  0  0  0
  1  6  1  0  0  0  0
  1 16  1  0  0  0  0
  2  3  1  0  0  0  0
  3  4  2  0  0  0  0
  3  7  1  0  0  0  0
  4  5  1  0  0  0  0
  4 10  1  0  0  0  0
  5  6  2  0  0  0  0
  5 17  1  0  0  0  0
  6 15  1  0  0  0  0
  7  8  1  0  0  0  0
  8  9  2  0  0  0  0
  8 11  1  0  0  0  0
  9 10  1  0  0  0  0
  9 14  1  0  0  0  0
 10 23  2  0  0  0  0
 11 12  1  0  0  0  0
 12 13  1  0  0  0  0
 12 21  1  1  0  0  0
 12 24  1  6  0  0  0
 13 14  1  0  0  0  0
 14 19  1  6  0  0  0
 14 25  1  1  0  0  0
 17 18  1  0  0  0  0
 17 22  2  0  0  0  0
 19 20  1  0  0  0  0
M  END
> <DRUGBANK_ID>
DB02593

> <DRUG_GROUPS>
experimental

> <GENERIC_NAME>
7,8-Dihydroxy-1-Methoxy-3-Methyl-10-Oxo-4,10-Dihydro-1h,3h-Pyrano[4,3-B]Chromene-9-Carboxylic Acid

> <CHEMICAL_FORMULA>
C15H14O8

> <MOLECULAR_WEIGHT>
322.2669

> <EXACT_MASS>
322.068867424

> <IUPAC_NAME>
(1R,3S)-7,8-dihydroxy-1-methoxy-3-methyl-10-oxo-1H,3H,4H,10H-pyrano[4,3-b]chromene-9-carboxylic acid

> <IUPAC_TRADITIONAL_NAME>
(1R,3S)-7,8-dihydroxy-1-methoxy-3-methyl-10-oxo-1H,3H,4H-pyrano[4,3-b]chromene-9-carboxylic acid

> <INCHI_IDENTIFIER>
InChI=1S/C15H14O8/c1-5-3-7-10(15(21-2)22-5)13(18)9-8(23-7)4-6(16)12(17)11(9)14(19)20/h4-5,15-17H,3H2,1-2H3,(H,19,20)/t5-,15+/m0/s1

> <INCHI_KEY>
InChIKey=RSFJMLCZHPZXCW-AANKLQPISA-N

> <SMILES>
[H][C@]1(C)CC2=C(C(=O)C3=C(O2)C=C(O)C(O)=C3C(O)=O)[C@]([H])(OC)O1

> <JCHEM_ACCEPTOR_COUNT>
8

> <JCHEM_DONOR_COUNT>
3

> <JCHEM_ACIDIC_PKA>
2.25

> <JCHEM_BASIC_PKA>
-4

> <JCHEM_PHYSIOLOGICAL_CHARGE>
-2

> <ALOGPS_LOGP>
1.36

> <JCHEM_LOGP>
1.56

> <ALOGPS_LOGS>
-2.4

> <JCHEM_POLARIZABILITY>
30.56

> <JCHEM_POLAR_SURFACE_AREA>
122.52

> <JCHEM_REFRACTIVITY>
77.56

> <JCHEM_ROTATABLE_BOND_COUNT>
2

> <ALOGPS_SOLUBILITY>
1.27e+00 g/l __ 

$$$$
