FLE
  Mrv0541 02231216032D          

 17 17  0  0  0  0            999 V2000
    0.2206    0.5696    0.0000 N   0  0  0  0  0  0  0  0  0  0  0  0
   -0.4938    0.1571    0.0000 C   0  0  1  0  0  0  0  0  0  0  0  0
   -1.2083    0.5696    0.0000 C   0  0  0  0  0  0  0  0  0  0  0  0
   -1.9228    0.1571    0.0000 C   0  0  0  0  0  0  0  0  0  0  0  0
   -2.6372    0.5696    0.0000 C   0  0  0  0  0  0  0  0  0  0  0  0
   -1.9228   -0.6679    0.0000 C   0  0  0  0  0  0  0  0  0  0  0  0
   -0.4938   -0.6679    0.0000 C   0  0  0  0  0  0  0  0  0  0  0  0
   -1.2083   -1.0804    0.0000 O   0  0  0  0  0  0  0  0  0  0  0  0
    0.2206   -1.0804    0.0000 O   0  0  0  0  0  0  0  0  0  0  0  0
    0.9351    0.1571    0.0000 C   0  0  0  0  0  0  0  0  0  0  0  0
    0.9351   -0.6679    0.0000 O   0  0  0  0  0  0  0  0  0  0  0  0
    1.6496    0.5696    0.0000 C   0  0  0  0  0  0  0  0  0  0  0  0
    1.7358    1.3901    0.0000 O   0  0  0  0  0  0  0  0  0  0  0  0
    2.4033    0.2341    0.0000 C   0  0  0  0  0  0  0  0  0  0  0  0
    2.9553    0.8472    0.0000 C   0  0  0  0  0  0  0  0  0  0  0  0
    2.5428    1.5616    0.0000 C   0  0  0  0  0  0  0  0  0  0  0  0
   -0.4938    0.7410    0.0000 H   0  0  0  0  0  0  0  0  0  0  0  0
  2  1  1  6  0  0  0
  1 10  1  0  0  0  0
  2  3  1  0  0  0  0
  2  7  1  0  0  0  0
  2 17  1  1  0  0  0
  3  4  1  0  0  0  0
  4  5  1  0  0  0  0
  4  6  1  0  0  0  0
  7  8  1  0  0  0  0
  7  9  2  0  0  0  0
 10 11  2  0  0  0  0
 10 12  1  0  0  0  0
 12 13  1  0  0  0  0
 12 14  2  0  0  0  0
 13 16  1  0  0  0  0
 14 15  1  0  0  0  0
 15 16  2  0  0  0  0
M  END
> <DRUGBANK_ID>
DB02215

> <DRUG_GROUPS>
experimental

> <GENERIC_NAME>
Furoyl-Leucine

> <CHEMICAL_FORMULA>
C11H15NO4

> <MOLECULAR_WEIGHT>
225.2411

> <EXACT_MASS>
225.100107973

> <IUPAC_NAME>
(2S)-2-(furan-2-ylformamido)-4-methylpentanoic acid

> <IUPAC_TRADITIONAL_NAME>
(2S)-2-(furan-2-ylformamido)-4-methylpentanoic acid

> <INCHI_IDENTIFIER>
InChI=1S/C11H15NO4/c1-7(2)6-8(11(14)15)12-10(13)9-4-3-5-16-9/h3-5,7-8H,6H2,1-2H3,(H,12,13)(H,14,15)/t8-/m0/s1

> <INCHI_KEY>
InChIKey=LXBURZIESWDWIV-QMMMGPOBSA-N

> <SMILES>
[H][C@@](CC(C)C)(NC(=O)C1=CC=CO1)C(O)=O

> <JCHEM_ACCEPTOR_COUNT>
3

> <JCHEM_DONOR_COUNT>
2

> <JCHEM_ACIDIC_PKA>
3.9

> <JCHEM_BASIC_PKA>
-3.4

> <JCHEM_PHYSIOLOGICAL_CHARGE>
-1

> <ALOGPS_LOGP>
1.5

> <JCHEM_LOGP>
1.41

> <ALOGPS_LOGS>
-2.9

> <JCHEM_POLARIZABILITY>
23.16

> <JCHEM_POLAR_SURFACE_AREA>
79.54

> <JCHEM_REFRACTIVITY>
56.68

> <JCHEM_ROTATABLE_BOND_COUNT>
5

> <ALOGPS_SOLUBILITY>
3.20e-01 g/l __ 

$$$$
