
  Mrv0541 02231216202D          

 28 30  0  0  1  0            999 V2000
   -2.7900    3.9253    0.0000 N   0  0  0  0  0  0  0  0  0  0  0  0
   -3.5970    3.7538    0.0000 C   0  0  0  0  0  0  0  0  0  0  0  0
   -3.8519    2.9692    0.0000 N   0  0  0  0  0  0  0  0  0  0  0  0
   -4.6589    2.7976    0.0000 C   0  0  0  0  0  0  0  0  0  0  0  0
   -5.2109    3.4107    0.0000 C   0  0  0  0  0  0  0  0  0  0  0  0
   -5.9646    3.0752    0.0000 N   0  0  0  0  0  0  0  0  0  0  0  0
   -5.8783    2.2547    0.0000 C   0  0  0  0  0  0  0  0  0  0  0  0
   -5.0714    2.0832    0.0000 N   0  0  0  0  0  0  0  0  0  0  0  0
   -4.7358    1.3295    0.0000 C   0  0  2  0  0  0  0  0  0  0  0  0
   -3.9288    1.1580    0.0000 O   0  0  0  0  0  0  0  0  0  0  0  0
   -3.8426    0.3375    0.0000 C   0  0  1  0  0  0  0  0  0  0  0  0
   -3.1281   -0.0750    0.0000 C   0  0  0  0  0  0  0  0  0  0  0  0
   -2.4137    0.3375    0.0000 O   0  0  0  0  0  0  0  0  0  0  0  0
   -1.6992   -0.0750    0.0000 P   0  0  2  0  0  0  0  0  0  0  0  0
   -2.1117   -0.7895    0.0000 O   0  0  0  0  0  0  0  0  0  0  0  0
   -1.2867    0.6394    0.0000 O   0  0  0  0  0  0  0  0  0  0  0  0
   -0.9847   -0.4875    0.0000 O   0  0  0  0  0  0  0  0  0  0  0  0
   -0.2703   -0.0750    0.0000 P   0  0  1  0  0  0  0  0  0  0  0  0
    0.4442    0.3375    0.0000 N   0  0  0  0  0  0  0  0  0  0  0  0
    0.1422   -0.7895    0.0000 O   0  0  0  0  0  0  0  0  0  0  0  0
   -0.6828    0.6394    0.0000 O   0  0  0  0  0  0  0  0  0  0  0  0
   -4.5963    0.0019    0.0000 C   0  0  2  0  0  0  0  0  0  0  0  0
   -4.7678   -0.8051    0.0000 O   0  0  0  0  0  0  0  0  0  0  0  0
   -5.1483    0.6150    0.0000 C   0  0  1  0  0  0  0  0  0  0  0  0
   -5.9688    0.5288    0.0000 O   0  0  0  0  0  0  0  0  0  0  0  0
   -4.9560    4.1953    0.0000 C   0  0  0  0  0  0  0  0  0  0  0  0
   -5.5080    4.8084    0.0000 O   0  0  0  0  0  0  0  0  0  0  0  0
   -4.1490    4.3669    0.0000 N   0  0  0  0  0  0  0  0  0  0  0  0
  1  2  1  0  0  0  0
  2  3  2  0  0  0  0
  3  4  1  0  0  0  0
  4  5  2  0  0  0  0
  5  6  1  0  0  0  0
  6  7  2  0  0  0  0
  7  8  1  0  0  0  0
  4  8  1  0  0  0  0
  9  8  1  6  0  0  0
  9 10  1  0  0  0  0
 10 11  1  0  0  0  0
 11 12  1  1  0  0  0
 12 13  1  0  0  0  0
 14 13  1  6  0  0  0
 14 15  1  1  0  0  0
 14 16  2  0  0  0  0
 14 17  1  0  0  0  0
 17 18  1  0  0  0  0
 18 19  1  1  0  0  0
 18 20  1  6  0  0  0
 18 21  2  0  0  0  0
 11 22  1  0  0  0  0
 22 23  1  6  0  0  0
 22 24  1  0  0  0  0
  9 24  1  0  0  0  0
 24 25  1  1  0  0  0
  5 26  1  0  0  0  0
 26 27  2  0  0  0  0
 26 28  1  0  0  0  0
  2 28  1  0  0  0  0
M  END
> <DRUGBANK_ID>
DB02623

> <DRUG_GROUPS>
experimental

> <GENERIC_NAME>
Aminophosphonic Acid-Guanylate Ester

> <CHEMICAL_FORMULA>
C10H16N6O10P2

> <MOLECULAR_WEIGHT>
442.2158

> <EXACT_MASS>
442.040313786

> <IUPAC_NAME>
{[amino(hydroxy)phosphoryl]oxy}({[(2S,3R,4R,5R)-5-(2-amino-6-oxo-6,9-dihydro-1H-purin-9-yl)-3,4-dihydroxyoxolan-2-yl]methoxy})phosphinic acid

> <IUPAC_TRADITIONAL_NAME>
[amino(hydroxy)phosphoryl]oxy[(2S,3R,4R,5R)-5-(2-amino-6-oxo-1H-purin-9-yl)-3,4-dihydroxyoxolan-2-yl]methoxyphosphinic acid

> <INCHI_IDENTIFIER>
InChI=1S/C10H16N6O10P2/c11-10-14-7-4(8(19)15-10)13-2-16(7)9-6(18)5(17)3(25-9)1-24-28(22,23)26-27(12,20)21/h2-3,5-6,9,17-18H,1H2,(H,22,23)(H3,12,20,21)(H3,11,14,15,19)/t3-,5-,6+,9+/m0/s1

> <INCHI_KEY>
InChIKey=ZGPDMUBRWRJAQQ-BZKDHIKHSA-N

> <SMILES>
NC1=NC2=C(N=CN2[C@@H]2O[C@@H](CO[P@](O)(=O)O[P@@](N)(O)=O)[C@H](O)[C@H]2O)C(=O)N1

> <JCHEM_ACCEPTOR_COUNT>
11

> <JCHEM_DONOR_COUNT>
7

> <JCHEM_ACIDIC_PKA>
0.42

> <JCHEM_BASIC_PKA>
1.59

> <JCHEM_PHYSIOLOGICAL_CHARGE>
-2

> <ALOGPS_LOGP>
-1.5

> <JCHEM_LOGP>
-3.7

> <ALOGPS_LOGS>
-2

> <JCHEM_POLARIZABILITY>
35.64

> <JCHEM_POLAR_SURFACE_AREA>
254.07

> <JCHEM_REFRACTIVITY>
87.9

> <JCHEM_ROTATABLE_BOND_COUNT>
6

> <ALOGPS_SOLUBILITY>
4.05e+00 g/l __ 

$$$$
