IQZ
  Mrv0541 02231216022D          

 19 22  0  0  0  0            999 V2000
    1.9557    0.8351    0.0000 C   0  0  0  0  0  0  0  0  0  0  0  0
    1.2225    0.4570    0.0000 C   0  0  0  0  0  0  0  0  0  0  0  0
    1.1833   -0.3670    0.0000 C   0  0  0  0  0  0  0  0  0  0  0  0
    1.8773   -0.8130    0.0000 C   0  0  0  0  0  0  0  0  0  0  0  0
    2.6106   -0.4350    0.0000 C   0  0  0  0  0  0  0  0  0  0  0  0
    2.6498    0.3891    0.0000 C   0  0  0  0  0  0  0  0  0  0  0  0
    0.4509    0.7490    0.0000 N   0  0  0  0  0  0  0  0  0  0  0  0
   -0.0652    0.1053    0.0000 C   0  0  0  0  0  0  0  0  0  0  0  0
    0.3874   -0.5844    0.0000 C   0  0  0  0  0  0  0  0  0  0  0  0
   -0.8889    0.0582    0.0000 C   0  0  1  0  0  0  0  0  0  0  0  0
   -1.2599   -0.6787    0.0000 N   0  0  2  0  0  0  0  0  0  0  0  0
   -0.8072   -1.3684    0.0000 C   0  0  0  0  0  0  0  0  0  0  0  0
    0.0164   -1.3213    0.0000 C   0  0  0  0  0  0  0  0  0  0  0  0
   -1.3415    0.7479    0.0000 C   0  0  0  0  0  0  0  0  0  0  0  0
   -2.1652    0.7008    0.0000 C   0  0  0  0  0  0  0  0  0  0  0  0
   -2.5362   -0.0361    0.0000 C   0  0  0  0  0  0  0  0  0  0  0  0
   -2.0835   -0.7258    0.0000 C   0  0  0  0  0  0  0  0  0  0  0  0
    0.4691   -2.0110    0.0000 O   0  0  0  0  0  0  0  0  0  0  0  0
   -0.6263    0.5797    0.0000 H   0  0  0  0  0  0  0  0  0  0  0  0
  1  2  1  0  0  0  0
  1  6  2  0  0  0  0
  2  3  2  0  0  0  0
  2  7  1  0  0  0  0
  3  4  1  0  0  0  0
  3  9  1  0  0  0  0
  4  5  2  0  0  0  0
  5  6  1  0  0  0  0
  7  8  1  0  0  0  0
  8  9  2  0  0  0  0
  8 10  1  0  0  0  0
  9 13  1  0  0  0  0
 10 11  1  0  0  0  0
 10 14  1  0  0  0  0
 10 19  1  6  0  0  0
 11 12  1  0  0  0  0
 11 17  1  6  0  0  0
 12 13  1  0  0  0  0
 13 18  2  0  0  0  0
 14 15  1  0  0  0  0
 15 16  1  0  0  0  0
 16 17  1  0  0  0  0
M  END
> <DRUGBANK_ID>
DB02191

> <DRUG_GROUPS>
experimental

> <GENERIC_NAME>
(7as,12ar,12bs)-1,2,3,4,7a,12,12a,12b-Octahydroindolo[2,3-a]Quinolizin-7(6h)-One

> <CHEMICAL_FORMULA>
C15H16N2O

> <MOLECULAR_WEIGHT>
240.3003

> <EXACT_MASS>
240.126263144

> <IUPAC_NAME>
(2S)-7,17-diazatetracyclo[8.7.0.0^{2,7}.0^{11,16}]heptadeca-1(10),11,13,15-tetraen-9-one

> <IUPAC_TRADITIONAL_NAME>
(2S)-7,17-diazatetracyclo[8.7.0.0^{2,7}.0^{11,16}]heptadeca-1(10),11,13,15-tetraen-9-one

> <INCHI_IDENTIFIER>
InChI=1S/C15H16N2O/c18-13-9-17-8-4-3-7-12(17)15-14(13)10-5-1-2-6-11(10)16-15/h1-2,5-6,12,16H,3-4,7-9H2/t12-/m0/s1

> <INCHI_KEY>
InChIKey=PGKUSHWBQJPFOP-LBPRGKRZSA-N

> <SMILES>
[H][C@@]12CCCC[N@]1CC(=O)C1=C2NC2=C1C=CC=C2

> <JCHEM_ACCEPTOR_COUNT>
2

> <JCHEM_DONOR_COUNT>
1

> <JCHEM_ACIDIC_PKA>
12.44

> <JCHEM_BASIC_PKA>
3.68

> <JCHEM_PHYSIOLOGICAL_CHARGE>
0

> <ALOGPS_LOGP>
2.37

> <JCHEM_LOGP>
2.1

> <ALOGPS_LOGS>
-2.4

> <JCHEM_POLARIZABILITY>
27.17

> <JCHEM_POLAR_SURFACE_AREA>
36.1

> <JCHEM_REFRACTIVITY>
71.22

> <JCHEM_ROTATABLE_BOND_COUNT>
0

> <ALOGPS_SOLUBILITY>
1.07e+00 g/l __ 

$$$$
