
  Mrv0541 02231216112D          

  7  6  0  0  0  0            999 V2000
   -0.1914    0.7145    0.0000 C   0  0  0  0  0  0  0  0  0  0  0  0
    0.5230    1.1270    0.0000 C   0  0  0  0  0  0  0  0  0  0  0  0
    1.2375    0.7145    0.0000 C   0  0  0  0  0  0  0  0  0  0  0  0
    1.9520    1.1270    0.0000 C   0  0  0  0  0  0  0  0  0  0  0  0
    2.6664    0.7145    0.0000 C   0  0  0  0  0  0  0  0  0  0  0  0
    3.3809    1.1270    0.0000 O   0  0  0  0  0  0  0  0  0  0  0  0
    2.6664   -0.1105    0.0000 O   0  0  0  0  0  0  0  0  0  0  0  0
  1  2  1  0  0  0  0
  2  3  1  0  0  0  0
  3  4  1  0  0  0  0
  4  5  1  0  0  0  0
  5  6  1  0  0  0  0
  5  7  2  0  0  0  0
M  END
> <DRUGBANK_ID>
DB02406

> <DRUG_GROUPS>
experimental

> <GENERIC_NAME>
N-Valeric Acid

> <CHEMICAL_FORMULA>
C5H10O2

> <MOLECULAR_WEIGHT>
102.1317

> <EXACT_MASS>
102.068079564

> <IUPAC_NAME>
pentanoic acid

> <IUPAC_TRADITIONAL_NAME>
N-valeric acid

> <INCHI_IDENTIFIER>
InChI=1S/C5H10O2/c1-2-3-4-5(6)7/h2-4H2,1H3,(H,6,7)

> <INCHI_KEY>
InChIKey=NQPDZGIKBAWPEJ-UHFFFAOYSA-N

> <SMILES>
CCCCC(O)=O

> <JCHEM_ACCEPTOR_COUNT>
2

> <JCHEM_DONOR_COUNT>
1

> <JCHEM_ACIDIC_PKA>
5.01

> <JCHEM_PHYSIOLOGICAL_CHARGE>
-1

> <ALOGPS_LOGP>
1.34

> <JCHEM_LOGP>
1.37

> <ALOGPS_LOGS>
-0.4

> <JCHEM_POLARIZABILITY>
11.23

> <JCHEM_POLAR_SURFACE_AREA>
37.3

> <JCHEM_REFRACTIVITY>
26.47

> <JCHEM_ROTATABLE_BOND_COUNT>
3

> <ALOGPS_SOLUBILITY>
4.03e+01 g/l __ 

$$$$
