
  Mrv0541 02231215562D          

  8  7  0  0  0  0            999 V2000
    1.7605    1.8414    0.0000 N   0  3  0  0  0  0  0  0  0  0  0  0
    2.4750    1.4289    0.0000 C   0  0  0  0  0  0  0  0  0  0  0  0
    3.1895    1.8414    0.0000 C   0  0  0  0  0  0  0  0  0  0  0  0
    3.9039    1.4289    0.0000 C   0  0  0  0  0  0  0  0  0  0  0  0
    4.6184    1.8414    0.0000 C   0  0  0  0  0  0  0  0  0  0  0  0
    5.3329    1.4289    0.0000 C   0  0  0  0  0  0  0  0  0  0  0  0
    6.0474    1.8414    0.0000 O   0  0  0  0  0  0  0  0  0  0  0  0
    5.3329    0.6039    0.0000 O   0  0  0  0  0  0  0  0  0  0  0  0
  1  2  1  0  0  0  0
  2  3  1  0  0  0  0
  3  4  1  0  0  0  0
  4  5  1  0  0  0  0
  5  6  1  0  0  0  0
  6  7  1  0  0  0  0
  6  8  2  0  0  0  0
M  END
> <DRUGBANK_ID>
DB02068

> <DRUG_GROUPS>
experimental

> <GENERIC_NAME>
Delta-Amino Valeric Acid

> <CHEMICAL_FORMULA>
C5H12NO2

> <MOLECULAR_WEIGHT>
118.1543

> <EXACT_MASS>
118.086803633

> <IUPAC_NAME>
4-carboxybutan-1-aminium

> <IUPAC_TRADITIONAL_NAME>
delta-amino valeric acid

> <INCHI_IDENTIFIER>
InChI=1S/C5H11NO2/c6-4-2-1-3-5(7)8/h1-4,6H2,(H,7,8)/p+1

> <INCHI_KEY>
InChIKey=JJMDCOVWQOJGCB-UHFFFAOYSA-O

> <SMILES>
[NH3+]CCCCC(O)=O

> <JCHEM_ACCEPTOR_COUNT>
2

> <JCHEM_DONOR_COUNT>
2

> <JCHEM_ACIDIC_PKA>
4.65

> <JCHEM_BASIC_PKA>
10.21

> <JCHEM_PHYSIOLOGICAL_CHARGE>
0

> <ALOGPS_LOGP>
-2.4

> <JCHEM_LOGP>
-2.4

> <ALOGPS_LOGS>
-1.2

> <JCHEM_POLARIZABILITY>
12.99

> <JCHEM_POLAR_SURFACE_AREA>
64.94

> <JCHEM_REFRACTIVITY>
41.35

> <JCHEM_ROTATABLE_BOND_COUNT>
4

> <ALOGPS_SOLUBILITY>
1.03e+01 g/l __ 

$$$$
