ZFB
  Mrv0541 02231216262D          

 25 26  0  0  0  0            999 V2000
   -0.3660    0.2381    0.0000 N   0  0  0  0  0  0  0  0  0  0  0  0
   -0.6360   -0.5415    0.0000 C   0  0  0  0  0  0  0  0  0  0  0  0
   -0.0959   -1.1651    0.0000 O   0  0  0  0  0  0  0  0  0  0  0  0
   -1.4461   -0.6974    0.0000 O   0  0  0  0  0  0  0  0  0  0  0  0
   -1.7162   -1.4769    0.0000 C   0  0  0  0  0  0  0  0  0  0  0  0
   -2.5263   -1.6328    0.0000 C   0  0  0  0  0  0  0  0  0  0  0  0
   -2.7964   -2.4124    0.0000 C   0  0  0  0  0  0  0  0  0  0  0  0
   -3.6065   -2.5683    0.0000 C   0  0  0  0  0  0  0  0  0  0  0  0
   -4.1466   -1.9446    0.0000 C   0  0  0  0  0  0  0  0  0  0  0  0
   -3.8766   -1.1651    0.0000 C   0  0  0  0  0  0  0  0  0  0  0  0
   -3.0664   -1.0092    0.0000 C   0  0  0  0  0  0  0  0  0  0  0  0
    0.4442    0.3940    0.0000 C   0  0  2  0  0  0  0  0  0  0  0  0
    0.9843   -0.2296    0.0000 C   0  0  0  0  0  0  0  0  0  0  0  0
    0.7142   -1.0092    0.0000 O   0  0  0  0  0  0  0  0  0  0  0  0
    1.7944   -0.0737    0.0000 C   0  0  0  0  0  0  0  0  0  0  0  0
    2.3345   -0.6974    0.0000 N   0  3  0  0  0  0  0  0  0  0  0  0
    2.8746   -1.3210    0.0000 N   0  0  0  0  0  0  0  0  0  0  0  0
    0.7142    1.1736    0.0000 C   0  0  0  0  0  0  0  0  0  0  0  0
    1.5243    1.3295    0.0000 C   0  0  0  0  0  0  0  0  0  0  0  0
    1.7944    2.1090    0.0000 C   0  0  0  0  0  0  0  0  0  0  0  0
    2.6045    2.2649    0.0000 C   0  0  0  0  0  0  0  0  0  0  0  0
    3.1446    1.6413    0.0000 C   0  0  0  0  0  0  0  0  0  0  0  0
    2.8746    0.8617    0.0000 C   0  0  0  0  0  0  0  0  0  0  0  0
    2.0644    0.7058    0.0000 C   0  0  0  0  0  0  0  0  0  0  0  0
    0.2530   -0.1578    0.0000 H   0  0  0  0  0  0  0  0  0  0  0  0
  1  2  1  0  0  0  0
 12  1  1  1  0  0  0
  2  3  2  0  0  0  0
  2  4  1  0  0  0  0
  4  5  1  0  0  0  0
  5  6  1  0  0  0  0
  6  7  2  0  0  0  0
  6 11  1  0  0  0  0
  7  8  1  0  0  0  0
  8  9  2  0  0  0  0
  9 10  1  0  0  0  0
 10 11  2  0  0  0  0
 12 13  1  0  0  0  0
 12 18  1  0  0  0  0
 12 25  1  6  0  0  0
 13 14  2  0  0  0  0
 13 15  1  0  0  0  0
 15 16  1  0  0  0  0
 16 17  3  0  0  0  0
 18 19  1  0  0  0  0
 19 20  2  0  0  0  0
 19 24  1  0  0  0  0
 20 21  1  0  0  0  0
 21 22  2  0  0  0  0
 22 23  1  0  0  0  0
 23 24  2  0  0  0  0
M  END
> <DRUGBANK_ID>
DB02766

> <DRUG_GROUPS>
experimental

> <GENERIC_NAME>
(3r)-3-{[(Benzyloxy)Carbonyl]Amino}-2-Oxo-4-Phenylbutane-1-Diazonium

> <CHEMICAL_FORMULA>
C18H18N3O3

> <MOLECULAR_WEIGHT>
324.3538

> <EXACT_MASS>
324.134816457

> <IUPAC_NAME>
(3S)-3-{[(benzyloxy)carbonyl]amino}-2-oxo-4-phenylbutane-1-diazonium

> <IUPAC_TRADITIONAL_NAME>
(3S)-3-{[(benzyloxy)carbonyl]amino}-2-oxo-4-phenylbutane-1-diazonium

> <INCHI_IDENTIFIER>
InChI=1S/C18H17N3O3/c19-20-12-17(22)16(11-14-7-3-1-4-8-14)21-18(23)24-13-15-9-5-2-6-10-15/h1-10,16H,11-13H2/p+1/t16-/m0/s1

> <INCHI_KEY>
InChIKey=VLIGBVLLNSWVMI-INIZCTEOSA-O

> <SMILES>
[H][C@@](CC1=CC=CC=C1)(NC(=O)OCC1=CC=CC=C1)C(=O)C[N+]#N

> <JCHEM_ACCEPTOR_COUNT>
3

> <JCHEM_DONOR_COUNT>
1

> <JCHEM_ACIDIC_PKA>
7.73

> <JCHEM_BASIC_PKA>
-9

> <JCHEM_PHYSIOLOGICAL_CHARGE>
1

> <ALOGPS_LOGP>
3.46

> <JCHEM_LOGP>
3.59

> <ALOGPS_LOGS>
-4.5

> <JCHEM_POLARIZABILITY>
34

> <JCHEM_POLAR_SURFACE_AREA>
83.55

> <JCHEM_REFRACTIVITY>
109.71

> <JCHEM_ROTATABLE_BOND_COUNT>
8

> <ALOGPS_SOLUBILITY>
1.03e-02 g/l __ 

$$$$
