
  Mrv0541 02231216092D          

 31 32  0  0  1  0            999 V2000
   -1.4289    0.0000    0.0000 O   0  0  0  0  0  0  0  0  0  0  0  0
   -0.7145   -0.4125    0.0000 C   0  0  0  0  0  0  0  0  0  0  0  0
   -0.7145   -1.2375    0.0000 C   0  0  2  0  0  0  0  0  0  0  0  0
    0.0000   -1.6500    0.0000 O   0  0  0  0  0  0  0  0  0  0  0  0
    0.0000   -2.4750    0.0000 C   0  0  2  0  0  0  0  0  0  0  0  0
    0.7145   -2.8875    0.0000 O   0  0  0  0  0  0  0  0  0  0  0  0
   -0.7145   -2.8875    0.0000 C   0  0  1  0  0  0  0  0  0  0  0  0
   -0.7145   -3.7125    0.0000 N   0  0  0  0  0  0  0  0  0  0  0  0
    0.0000   -4.1250    0.0000 S   0  0  0  0  0  0  0  0  0  0  0  0
    0.7145   -4.5375    0.0000 O   0  5  0  0  0  0  0  0  0  0  0  0
    0.4125   -3.4105    0.0000 O   0  0  0  0  0  0  0  0  0  0  0  0
   -0.4125   -4.8395    0.0000 O   0  0  0  0  0  0  0  0  0  0  0  0
   -1.4289   -2.4750    0.0000 C   0  0  2  0  0  0  0  0  0  0  0  0
   -2.1434   -2.8875    0.0000 O   0  0  0  0  0  0  0  0  0  0  0  0
   -1.4289   -1.6500    0.0000 C   0  0  1  0  0  0  0  0  0  0  0  0
   -2.1434   -1.2375    0.0000 O   0  0  0  0  0  0  0  0  0  0  0  0
   -2.8579   -1.6500    0.0000 C   0  0  2  0  0  0  0  0  0  0  0  0
   -2.8579   -2.4750    0.0000 O   0  0  0  0  0  0  0  0  0  0  0  0
   -3.5724   -2.8875    0.0000 C   0  0  0  0  0  0  0  0  0  0  0  0
   -4.2868   -2.4750    0.0000 C   0  0  0  0  0  0  0  0  0  0  0  0
   -4.2868   -1.6500    0.0000 C   0  0  1  0  0  0  0  0  0  0  0  0
   -5.0013   -1.2375    0.0000 O   0  0  0  0  0  0  0  0  0  0  0  0
   -3.5724   -1.2375    0.0000 C   0  0  1  0  0  0  0  0  0  0  0  0
   -3.5724   -0.4125    0.0000 O   0  0  0  0  0  0  0  0  0  0  0  0
   -4.2868    0.0000    0.0000 S   0  0  0  0  0  0  0  0  0  0  0  0
   -5.0013    0.4125    0.0000 O   0  5  0  0  0  0  0  0  0  0  0  0
   -3.8743    0.7145    0.0000 O   0  0  0  0  0  0  0  0  0  0  0  0
   -4.6993   -0.7145    0.0000 O   0  0  0  0  0  0  0  0  0  0  0  0
   -3.5724   -3.7125    0.0000 C   0  0  0  0  0  0  0  0  0  0  0  0
   -4.2868   -4.1250    0.0000 O   0  5  0  0  0  0  0  0  0  0  0  0
   -2.8579   -4.1250    0.0000 O   0  0  0  0  0  0  0  0  0  0  0  0
  1  2  1  0  0  0  0
  3  2  1  6  0  0  0
  3  4  1  0  0  0  0
  4  5  1  0  0  0  0
  5  6  1  6  0  0  0
  5  7  1  0  0  0  0
  7  8  1  1  0  0  0
  8  9  1  0  0  0  0
  9 10  1  0  0  0  0
  9 11  2  0  0  0  0
  9 12  2  0  0  0  0
  7 13  1  0  0  0  0
 13 14  1  6  0  0  0
 13 15  1  0  0  0  0
  3 15  1  0  0  0  0
 15 16  1  1  0  0  0
 17 16  1  6  0  0  0
 17 18  1  0  0  0  0
 18 19  1  0  0  0  0
 19 20  2  0  0  0  0
 20 21  1  0  0  0  0
 21 22  1  1  0  0  0
 21 23  1  0  0  0  0
 17 23  1  0  0  0  0
 23 24  1  1  0  0  0
 24 25  1  0  0  0  0
 25 26  1  0  0  0  0
 25 27  2  0  0  0  0
 25 28  2  0  0  0  0
 19 29  1  0  0  0  0
 29 30  1  0  0  0  0
 29 31  2  0  0  0  0
M  END
> <DRUGBANK_ID>
DB02353

> <DRUG_GROUPS>
experimental

> <GENERIC_NAME>
Heparin Disaccharide Iii-S

> <CHEMICAL_FORMULA>
C12H16NO16S2

> <MOLECULAR_WEIGHT>
494.383

> <EXACT_MASS>
493.991049849

> <IUPAC_NAME>
(2R,3R,4R)-2-{[(2S,3R,4S,5S,6S)-4,6-dihydroxy-2-(hydroxymethyl)-5-(sulfonatoamino)oxan-3-yl]oxy}-4-hydroxy-3-(sulfonatooxy)-3,4-dihydro-2H-pyran-6-carboxylate

> <IUPAC_TRADITIONAL_NAME>
(4R,5R,6R)-6-{[(2S,3R,4S,5S,6S)-4,6-dihydroxy-2-(hydroxymethyl)-5-(sulfonatoamino)oxan-3-yl]oxy}-4-hydroxy-5-(sulfonatooxy)-5,6-dihydro-4H-pyran-2-carboxylate

> <INCHI_IDENTIFIER>
InChI=1S/C12H19NO16S2/c14-2-5-9(7(16)6(11(19)26-5)13-30(20,21)22)28-12-8(29-31(23,24)25)3(15)1-4(27-12)10(17)18/h1,3,5-9,11-16,19H,2H2,(H,17,18)(H,20,21,22)(H,23,24,25)/p-3/t3-,5+,6+,7+,8-,9+,11+,12+/m1/s1

> <INCHI_KEY>
InChIKey=GSYQGRODWXMUOO-XKUCOZAXSA-K

> <SMILES>
OC[C@@H]1O[C@H](O)[C@@H](NS([O-])(=O)=O)[C@H](O)[C@H]1O[C@@H]1OC(=C[C@@H](O)[C@H]1OS([O-])(=O)=O)C([O-])=O

> <JCHEM_ACCEPTOR_COUNT>
15

> <JCHEM_DONOR_COUNT>
5

> <JCHEM_ACIDIC_PKA>
-2.1

> <JCHEM_BASIC_PKA>
-3

> <JCHEM_PHYSIOLOGICAL_CHARGE>
-3

> <ALOGPS_LOGP>
-1.3

> <JCHEM_LOGP>
-7.5

> <ALOGPS_LOGS>
-1.2

> <JCHEM_POLARIZABILITY>
39.82

> <JCHEM_POLAR_SURFACE_AREA>
284.4

> <JCHEM_REFRACTIVITY>
99.09

> <JCHEM_ROTATABLE_BOND_COUNT>
7

> <ALOGPS_SOLUBILITY>
3.75e+01 g/l __ 

$$$$
