
  Mrv0541 02231216192D          

 18 18  0  0  1  0            999 V2000
   -2.8579   -1.6500    0.0000 C   0  0  0  0  0  0  0  0  0  0  0  0
   -2.1434   -2.0625    0.0000 C   0  0  0  0  0  0  0  0  0  0  0  0
   -2.1434   -2.8875    0.0000 O   0  0  0  0  0  0  0  0  0  0  0  0
   -1.4289   -1.6500    0.0000 N   0  0  0  0  0  0  0  0  0  0  0  0
   -0.7145   -2.0625    0.0000 C   0  0  1  0  0  0  0  0  0  0  0  0
   -0.7145   -2.8875    0.0000 C   0  0  0  0  0  0  0  0  0  0  0  0
    0.0000   -3.3000    0.0000 O   0  0  0  0  0  0  0  0  0  0  0  0
    0.0000   -1.6500    0.0000 C   0  0  1  0  0  0  0  0  0  0  0  0
    0.0000   -0.8250    0.0000 O   0  0  0  0  0  0  0  0  0  0  0  0
    0.7145   -2.0625    0.0000 C   0  0  0  0  0  0  0  0  0  0  0  0
    1.4289   -1.6500    0.0000 C   0  0  0  0  0  0  0  0  0  0  0  0
    2.1434   -2.0625    0.0000 C   0  0  0  0  0  0  0  0  0  0  0  0
    2.1434   -2.8875    0.0000 C   0  0  0  0  0  0  0  0  0  0  0  0
    1.4289   -3.3000    0.0000 C   0  0  0  0  0  0  0  0  0  0  0  0
    0.7145   -2.8875    0.0000 C   0  0  0  0  0  0  0  0  0  0  0  0
    2.8579   -3.3000    0.0000 N   0  3  0  0  0  0  0  0  0  0  0  0
    3.5724   -2.8875    0.0000 O   0  5  0  0  0  0  0  0  0  0  0  0
    2.8579   -4.1250    0.0000 O   0  0  0  0  0  0  0  0  0  0  0  0
  1  2  1  0  0  0  0
  2  3  2  0  0  0  0
  2  4  1  0  0  0  0
  5  4  1  6  0  0  0
  5  6  1  0  0  0  0
  6  7  1  0  0  0  0
  5  8  1  0  0  0  0
  8  9  1  1  0  0  0
  8 10  1  0  0  0  0
 10 11  2  0  0  0  0
 11 12  1  0  0  0  0
 12 13  2  0  0  0  0
 13 14  1  0  0  0  0
 14 15  2  0  0  0  0
 10 15  1  0  0  0  0
 13 16  1  0  0  0  0
 16 17  1  0  0  0  0
 16 18  2  0  0  0  0
M  END
> <DRUGBANK_ID>
DB02608

> <DRUG_GROUPS>
experimental

> <GENERIC_NAME>
N-Acetyl-P-Nitrophenylserinol

> <CHEMICAL_FORMULA>
C11H14N2O5

> <MOLECULAR_WEIGHT>
254.2393

> <EXACT_MASS>
254.090271568

> <IUPAC_NAME>
N-[(1S,2S)-1,3-dihydroxy-1-(4-nitrophenyl)propan-2-yl]acetamide

> <IUPAC_TRADITIONAL_NAME>
N-[(1S,2S)-1,3-dihydroxy-1-(4-nitrophenyl)propan-2-yl]acetamide

> <INCHI_IDENTIFIER>
InChI=1S/C11H14N2O5/c1-7(15)12-10(6-14)11(16)8-2-4-9(5-3-8)13(17)18/h2-5,10-11,14,16H,6H2,1H3,(H,12,15)/t10-,11-/m0/s1

> <INCHI_KEY>
InChIKey=PIVQDUYOEIAFDM-QWRGUYRKSA-N

> <SMILES>
CC(=O)N[C@@H](CO)[C@@H](O)C1=CC=C(C=C1)[N+]([O-])=O

> <JCHEM_ACCEPTOR_COUNT>
5

> <JCHEM_DONOR_COUNT>
3

> <JCHEM_ACIDIC_PKA>
12.45

> <JCHEM_BASIC_PKA>
-0.98

> <JCHEM_PHYSIOLOGICAL_CHARGE>
0

> <ALOGPS_LOGP>
0.13

> <JCHEM_LOGP>
-0.4

> <ALOGPS_LOGS>
-1.9

> <JCHEM_POLARIZABILITY>
24.07

> <JCHEM_POLAR_SURFACE_AREA>
115.38

> <JCHEM_REFRACTIVITY>
63.22

> <JCHEM_ROTATABLE_BOND_COUNT>
5

> <ALOGPS_SOLUBILITY>
2.97e+00 g/l __ 

$$$$
