
  Mrv0541 02231216002D          

 57 57  0  0  1  0            999 V2000
  -14.2894   -3.3000    0.0000 C   0  0  0  0  0  0  0  0  0  0  0  0
  -13.5749   -3.7125    0.0000 C   0  0  0  0  0  0  0  0  0  0  0  0
  -12.8605   -3.3000    0.0000 C   0  0  0  0  0  0  0  0  0  0  0  0
  -12.1460   -3.7125    0.0000 C   0  0  0  0  0  0  0  0  0  0  0  0
  -11.4315   -3.3000    0.0000 C   0  0  0  0  0  0  0  0  0  0  0  0
  -10.7171   -3.7125    0.0000 C   0  0  0  0  0  0  0  0  0  0  0  0
  -10.0026   -3.3000    0.0000 C   0  0  0  0  0  0  0  0  0  0  0  0
   -9.2881   -3.7125    0.0000 C   0  0  0  0  0  0  0  0  0  0  0  0
   -8.5737   -3.3000    0.0000 C   0  0  0  0  0  0  0  0  0  0  0  0
   -7.8592   -3.7125    0.0000 C   0  0  0  0  0  0  0  0  0  0  0  0
   -7.1447   -3.3000    0.0000 C   0  0  0  0  0  0  0  0  0  0  0  0
   -6.4302   -3.7125    0.0000 C   0  0  0  0  0  0  0  0  0  0  0  0
   -5.7158   -3.3000    0.0000 C   0  0  0  0  0  0  0  0  0  0  0  0
   -5.0013   -3.7125    0.0000 C   0  0  0  0  0  0  0  0  0  0  0  0
   -4.2868   -3.3000    0.0000 C   0  0  0  0  0  0  0  0  0  0  0  0
   -3.5724   -3.7125    0.0000 C   0  0  0  0  0  0  0  0  0  0  0  0
   -3.5724   -4.5375    0.0000 O   0  0  0  0  0  0  0  0  0  0  0  0
   -2.8579   -3.3000    0.0000 O   0  0  0  0  0  0  0  0  0  0  0  0
   -2.1434   -3.7125    0.0000 C   0  0  0  0  0  0  0  0  0  0  0  0
   -1.4289   -3.3000    0.0000 C   0  0  1  0  0  0  0  0  0  0  0  0
   -1.4289   -2.4750    0.0000 C   0  0  0  0  0  0  0  0  0  0  0  0
   -0.7145   -2.0625    0.0000 O   0  0  0  0  0  0  0  0  0  0  0  0
   -0.7145   -1.2375    0.0000 P   0  0  2  0  0  0  0  0  0  0  0  0
   -1.5395   -1.2375    0.0000 O   0  5  0  0  0  0  0  0  0  0  0  0
    0.1105   -1.2375    0.0000 O   0  0  0  0  0  0  0  0  0  0  0  0
   -0.7145   -0.4125    0.0000 O   0  0  0  0  0  0  0  0  0  0  0  0
    0.0000    0.0000    0.0000 C   0  0  2  0  0  0  0  0  0  0  0  0
    0.0000    0.8250    0.0000 C   0  0  1  0  0  0  0  0  0  0  0  0
   -0.7145    1.2375    0.0000 O   0  0  0  0  0  0  0  0  0  0  0  0
    0.7145    1.2375    0.0000 C   0  0  2  0  0  0  0  0  0  0  0  0
    0.7145    2.0625    0.0000 O   0  0  0  0  0  0  0  0  0  0  0  0
    1.4289    0.8250    0.0000 C   0  0  1  0  0  0  0  0  0  0  0  0
    2.1434    1.2375    0.0000 O   0  0  0  0  0  0  0  0  0  0  0  0
    1.4289    0.0000    0.0000 C   0  0  2  0  0  0  0  0  0  0  0  0
    2.1434   -0.4125    0.0000 O   0  0  0  0  0  0  0  0  0  0  0  0
    0.7145   -0.4125    0.0000 C   0  0  1  0  0  0  0  0  0  0  0  0
    0.7145   -1.2375    0.0000 O   0  0  0  0  0  0  0  0  0  0  0  0
   -0.7145   -3.7125    0.0000 O   0  0  0  0  0  0  0  0  0  0  0  0
    0.0000   -3.3000    0.0000 C   0  0  0  0  0  0  0  0  0  0  0  0
    0.0000   -2.4750    0.0000 O   0  0  0  0  0  0  0  0  0  0  0  0
    0.7145   -3.7125    0.0000 C   0  0  0  0  0  0  0  0  0  0  0  0
    1.4289   -3.3000    0.0000 C   0  0  0  0  0  0  0  0  0  0  0  0
    2.1434   -3.7125    0.0000 C   0  0  0  0  0  0  0  0  0  0  0  0
    2.8579   -3.3000    0.0000 C   0  0  0  0  0  0  0  0  0  0  0  0
    3.5724   -3.7125    0.0000 C   0  0  0  0  0  0  0  0  0  0  0  0
    4.2868   -3.3000    0.0000 C   0  0  0  0  0  0  0  0  0  0  0  0
    5.0013   -3.7125    0.0000 C   0  0  0  0  0  0  0  0  0  0  0  0
    5.7158   -3.3000    0.0000 C   0  0  0  0  0  0  0  0  0  0  0  0
    6.4302   -3.7125    0.0000 C   0  0  0  0  0  0  0  0  0  0  0  0
    7.1447   -3.3000    0.0000 C   0  0  0  0  0  0  0  0  0  0  0  0
    7.1447   -2.4750    0.0000 C   0  0  0  0  0  0  0  0  0  0  0  0
    7.8592   -2.0625    0.0000 C   0  0  0  0  0  0  0  0  0  0  0  0
    7.8592   -1.2375    0.0000 C   0  0  0  0  0  0  0  0  0  0  0  0
    8.5737   -0.8250    0.0000 C   0  0  0  0  0  0  0  0  0  0  0  0
    8.5737    0.0000    0.0000 C   0  0  0  0  0  0  0  0  0  0  0  0
    9.2881    0.4125    0.0000 C   0  0  0  0  0  0  0  0  0  0  0  0
    9.2881    1.2375    0.0000 C   0  0  0  0  0  0  0  0  0  0  0  0
  1  2  1  0  0  0  0
  2  3  1  0  0  0  0
  3  4  1  0  0  0  0
  4  5  1  0  0  0  0
  5  6  1  0  0  0  0
  6  7  1  0  0  0  0
  7  8  1  0  0  0  0
  8  9  1  0  0  0  0
  9 10  1  0  0  0  0
 10 11  1  0  0  0  0
 11 12  1  0  0  0  0
 12 13  1  0  0  0  0
 13 14  1  0  0  0  0
 14 15  1  0  0  0  0
 15 16  1  0  0  0  0
 16 17  2  0  0  0  0
 16 18  1  0  0  0  0
 18 19  1  0  0  0  0
 19 20  1  0  0  0  0
 20 21  1  0  0  0  0
 21 22  1  0  0  0  0
 23 22  1  1  0  0  0
 23 24  1  6  0  0  0
 23 25  2  0  0  0  0
 23 26  1  0  0  0  0
 27 26  1  6  0  0  0
 27 28  1  0  0  0  0
 28 29  1  1  0  0  0
 28 30  1  0  0  0  0
 30 31  1  6  0  0  0
 30 32  1  0  0  0  0
 32 33  1  1  0  0  0
 32 34  1  0  0  0  0
 34 35  1  6  0  0  0
 34 36  1  0  0  0  0
 27 36  1  0  0  0  0
 36 37  1  1  0  0  0
 20 38  1  1  0  0  0
 38 39  1  0  0  0  0
 39 40  2  0  0  0  0
 39 41  1  0  0  0  0
 41 42  1  0  0  0  0
 42 43  1  0  0  0  0
 43 44  1  0  0  0  0
 44 45  1  0  0  0  0
 45 46  1  0  0  0  0
 46 47  1  0  0  0  0
 47 48  1  0  0  0  0
 48 49  2  0  0  0  0
 49 50  1  0  0  0  0
 50 51  1  0  0  0  0
 51 52  1  0  0  0  0
 52 53  1  0  0  0  0
 53 54  1  0  0  0  0
 54 55  1  0  0  0  0
 55 56  1  0  0  0  0
 56 57  1  0  0  0  0
M  END
> <DRUGBANK_ID>
DB02144

> <DRUG_GROUPS>
experimental

> <GENERIC_NAME>
1,2-Diacyl-Sn-Glycero-3-Phosphoinositol

> <CHEMICAL_FORMULA>
C43H80O13P

> <MOLECULAR_WEIGHT>
836.0613

> <EXACT_MASS>
835.533654158

> <IUPAC_NAME>
(2S)-1-(hexadecanoyloxy)-3-{[(S)-((1r,2R,3S,4s,5R,6S)-2,3,4,5,6-pentahydroxycyclohexyl phosphonato)]oxy}propan-2-yl (9E)-octadec-9-enoate

> <IUPAC_TRADITIONAL_NAME>
(2S)-1-(hexadecanoyloxy)-3-{[(S)-((1r,2R,3S,4s,5R,6S)-2,3,4,5,6-pentahydroxycyclohexyl phosphonato)]oxy}propan-2-yl (9E)-octadec-9-enoate

> <INCHI_IDENTIFIER>
InChI=1S/C43H81O13P/c1-3-5-7-9-11-13-15-17-18-20-22-24-26-28-30-32-37(45)55-35(34-54-57(51,52)56-43-41(49)39(47)38(46)40(48)42(43)50)33-53-36(44)31-29-27-25-23-21-19-16-14-12-10-8-6-4-2/h17-18,35,38-43,46-50H,3-16,19-34H2,1-2H3,(H,51,52)/p-1/b18-17+/t35-,38-,39-,40+,41+,42-,43-/m0/s1

> <INCHI_KEY>
InChIKey=PDLAMJKMOKWLAJ-KGUAWZMVSA-M

> <SMILES>
CCCCCCCCCCCCCCCC(=O)OC[C@@H](CO[P@@](=O)([O-])O[C@@H]1[C@@H](O)[C@H](O)[C@@H](O)[C@H](O)[C@H]1O)OC(=O)CCCCCCC\C=C\CCCCCCCC

> <JCHEM_ACCEPTOR_COUNT>
9

> <JCHEM_DONOR_COUNT>
5

> <JCHEM_ACIDIC_PKA>
1.83

> <JCHEM_BASIC_PKA>
-3.6

> <JCHEM_PHYSIOLOGICAL_CHARGE>
-1

> <ALOGPS_LOGP>
7.33

> <JCHEM_LOGP>
9.52

> <ALOGPS_LOGS>
-6

> <JCHEM_POLARIZABILITY>
98.83

> <JCHEM_POLAR_SURFACE_AREA>
212.34

> <JCHEM_REFRACTIVITY>
219.76

> <JCHEM_ROTATABLE_BOND_COUNT>
39

> <ALOGPS_SOLUBILITY>
8.01e-04 g/l __ 

$$$$
