
  Mrv0541 02231216252D          

 12 11  0  0  1  0            999 V2000
    3.1895   -2.6664    0.0000 N   0  0  0  0  0  0  0  0  0  0  0  0
    3.1895   -1.8414    0.0000 C   0  0  1  0  0  0  0  0  0  0  0  0
    2.4750   -1.4289    0.0000 C   0  0  0  0  0  0  0  0  0  0  0  0
    1.7605   -1.8414    0.0000 O   0  0  0  0  0  0  0  0  0  0  0  0
    2.4750   -0.6039    0.0000 O   0  0  0  0  0  0  0  0  0  0  0  0
    3.9039   -1.4289    0.0000 C   0  0  0  0  0  0  0  0  0  0  0  0
    3.9039   -0.6039    0.0000 O   0  0  0  0  0  0  0  0  0  0  0  0
    4.6184   -1.8414    0.0000 O   0  0  0  0  0  0  0  0  0  0  0  0
    5.3329   -1.4289    0.0000 S   0  0  0  0  0  0  0  0  0  0  0  0
    6.0474   -1.0164    0.0000 O   0  0  0  0  0  0  0  0  0  0  0  0
    5.7454   -2.1434    0.0000 O   0  0  0  0  0  0  0  0  0  0  0  0
    4.9204   -0.7145    0.0000 O   0  0  0  0  0  0  0  0  0  0  0  0
  2  1  1  1  0  0  0
  2  3  1  0  0  0  0
  3  4  1  0  0  0  0
  3  5  2  0  0  0  0
  2  6  1  0  0  0  0
  6  7  2  0  0  0  0
  6  8  1  0  0  0  0
  8  9  1  0  0  0  0
  9 10  1  0  0  0  0
  9 11  2  0  0  0  0
  9 12  2  0  0  0  0
M  END
> <DRUGBANK_ID>
DB02735

> <DRUG_GROUPS>
experimental

> <GENERIC_NAME>
2-Amino-3-Oxo-4-Sulfo-Butyric Acid

> <CHEMICAL_FORMULA>
C3H5NO7S

> <MOLECULAR_WEIGHT>
199.139

> <EXACT_MASS>
198.978672209

> <IUPAC_NAME>
(2S)-2-amino-3-oxo-3-(sulfooxy)propanoic acid

> <IUPAC_TRADITIONAL_NAME>
(2S)-2-amino-3-oxo-3-(sulfooxy)propanoic acid

> <INCHI_IDENTIFIER>
InChI=1S/C3H5NO7S/c4-1(2(5)6)3(7)11-12(8,9)10/h1H,4H2,(H,5,6)(H,8,9,10)/t1-/m0/s1

> <INCHI_KEY>
InChIKey=RZIKAUMRZOEFET-SFOWXEAESA-N

> <SMILES>
N[C@@H](C(O)=O)C(=O)OS(O)(=O)=O

> <JCHEM_ACCEPTOR_COUNT>
7

> <JCHEM_DONOR_COUNT>
3

> <JCHEM_ACIDIC_PKA>
-2.4

> <JCHEM_BASIC_PKA>
6.5

> <JCHEM_PHYSIOLOGICAL_CHARGE>
-2

> <ALOGPS_LOGP>
-2

> <JCHEM_LOGP>
-2.7

> <ALOGPS_LOGS>
-1.2

> <JCHEM_POLARIZABILITY>
14.81

> <JCHEM_POLAR_SURFACE_AREA>
143.99

> <JCHEM_REFRACTIVITY>
32.26

> <JCHEM_ROTATABLE_BOND_COUNT>
4

> <ALOGPS_SOLUBILITY>
1.18e+01 g/l __ 

$$$$
