
  Mrv0541 02231216262D          

 35 36  0  0  1  0            999 V2000
   10.6794   -3.8945    0.0000 C   0  0  0  0  0  0  0  0  0  0  0  0
   10.1876   -3.2321    0.0000 C   0  0  1  0  0  0  0  0  0  0  0  0
    9.3681   -3.3267    0.0000 N   0  0  0  0  0  0  0  0  0  0  0  0
    9.0402   -4.0838    0.0000 C   0  0  2  0  0  0  0  0  0  0  0  0
    9.5320   -4.7462    0.0000 C   0  0  0  0  0  0  0  0  0  0  0  0
   10.3515   -4.6516    0.0000 C   0  0  0  0  0  0  0  0  0  0  0  0
   10.8433   -5.3140    0.0000 C   0  0  0  0  0  0  0  0  0  0  0  0
   11.6628   -5.2194    0.0000 C   0  0  0  0  0  0  0  0  0  0  0  0
   12.1545   -5.8818    0.0000 C   0  0  0  0  0  0  0  0  0  0  0  0
   11.8267   -6.6389    0.0000 C   0  0  0  0  0  0  0  0  0  0  0  0
   11.0072   -6.7335    0.0000 C   0  0  0  0  0  0  0  0  0  0  0  0
   10.5154   -6.0711    0.0000 C   0  0  0  0  0  0  0  0  0  0  0  0
    8.2207   -4.1784    0.0000 C   0  0  0  0  0  0  0  0  0  0  0  0
    7.8929   -4.9355    0.0000 O   0  0  0  0  0  0  0  0  0  0  0  0
    7.7290   -3.5160    0.0000 N   0  0  0  0  0  0  0  0  0  0  0  0
    6.9094   -3.6106    0.0000 C   0  0  2  0  0  0  0  0  0  0  0  0
    6.4177   -2.9482    0.0000 C   0  0  0  0  0  0  0  0  0  0  0  0
    5.5981   -3.0428    0.0000 C   0  0  0  0  0  0  0  0  0  0  0  0
    5.1064   -2.3804    0.0000 C   0  0  0  0  0  0  0  0  0  0  0  0
    4.2868   -2.4750    0.0000 N   0  0  0  0  0  0  0  0  0  0  0  0
    3.7951   -1.8126    0.0000 C   0  0  0  0  0  0  0  0  0  0  0  0
    2.9755   -1.9072    0.0000 N   0  0  0  0  0  0  0  0  0  0  0  0
    4.1229   -1.0555    0.0000 N   0  3  0  0  0  0  0  0  0  0  0  0
    6.5816   -4.3677    0.0000 C   0  0  0  0  0  0  0  0  0  0  0  0
    5.7620   -4.4623    0.0000 O   0  0  0  0  0  0  0  0  0  0  0  0
    7.0733   -5.0301    0.0000 N   0  0  0  0  0  0  0  0  0  0  0  0
    6.7455   -5.7872    0.0000 C   0  0  0  0  0  0  0  0  0  0  0  0
    7.2372   -6.4496    0.0000 C   0  0  0  0  0  0  0  0  0  0  0  0
    6.9094   -7.2067    0.0000 C   0  0  0  0  0  0  0  0  0  0  0  0
    6.0898   -7.3013    0.0000 C   0  0  0  0  0  0  0  0  0  0  0  0
    5.5981   -6.6389    0.0000 C   0  0  0  0  0  0  0  0  0  0  0  0
    5.9259   -5.8818    0.0000 C   0  0  0  0  0  0  0  0  0  0  0  0
   10.5154   -2.4750    0.0000 C   0  0  0  0  0  0  0  0  0  0  0  0
   10.0237   -1.8126    0.0000 O   0  0  0  0  0  0  0  0  0  0  0  0
   11.3350   -2.3804    0.0000 O   0  0  0  0  0  0  0  0  0  0  0  0
  2  1  1  1  0  0  0
  2  3  1  0  0  0  0
  4  3  1  6  0  0  0
  4  5  1  0  0  0  0
  5  6  1  0  0  0  0
  6  7  1  0  0  0  0
  7  8  2  0  0  0  0
  8  9  1  0  0  0  0
  9 10  2  0  0  0  0
 10 11  1  0  0  0  0
 11 12  2  0  0  0  0
  7 12  1  0  0  0  0
  4 13  1  0  0  0  0
 13 14  2  0  0  0  0
 13 15  1  0  0  0  0
 16 15  1  1  0  0  0
 16 17  1  0  0  0  0
 17 18  1  0  0  0  0
 18 19  1  0  0  0  0
 19 20  1  0  0  0  0
 20 21  1  0  0  0  0
 21 22  1  0  0  0  0
 21 23  2  0  0  0  0
 16 24  1  0  0  0  0
 24 25  2  0  0  0  0
 24 26  1  0  0  0  0
 26 27  1  0  0  0  0
 27 28  2  0  0  0  0
 28 29  1  0  0  0  0
 29 30  2  0  0  0  0
 30 31  1  0  0  0  0
 31 32  2  0  0  0  0
 27 32  1  0  0  0  0
  2 33  1  0  0  0  0
 33 34  1  0  0  0  0
 33 35  2  0  0  0  0
M  END
> <DRUGBANK_ID>
DB02747

> <DRUG_GROUPS>
experimental

> <GENERIC_NAME>
N-(R-Carboxy-Ethyl)-Alpha-(S)-(2-Phenylethyl)Glycyl-L-Arginine-N-Phenylamide

> <CHEMICAL_FORMULA>
C25H35N6O4

> <MOLECULAR_WEIGHT>
483.5832

> <EXACT_MASS>
483.271978638

> <IUPAC_NAME>
[amino({[(4R)-4-[(2R)-2-{[(1R)-1-carboxyethyl]amino}-4-phenylbutanamido]-4-(phenylcarbamoyl)butyl]amino})methylidene]azanium

> <IUPAC_TRADITIONAL_NAME>
[amino({[(4R)-4-[(2R)-2-{[(1R)-1-carboxyethyl]amino}-4-phenylbutanamido]-4-(phenylcarbamoyl)butyl]amino})methylidene]azanium

> <INCHI_IDENTIFIER>
InChI=1S/C25H34N6O4/c1-17(24(34)35)29-21(15-14-18-9-4-2-5-10-18)23(33)31-20(13-8-16-28-25(26)27)22(32)30-19-11-6-3-7-12-19/h2-7,9-12,17,20-21,29H,8,13-16H2,1H3,(H,30,32)(H,31,33)(H,34,35)(H4,26,27,28)/p+1/t17-,20-,21-/m1/s1

> <INCHI_KEY>
InChIKey=HDGWGGCPTVXRNA-DUXKGJEZSA-O

> <SMILES>
C[C@@H](N[C@H](CCC1=CC=CC=C1)C(=O)N[C@H](CCCNC(N)=[NH2+])C(=O)NC1=CC=CC=C1)C(O)=O

> <JCHEM_ACCEPTOR_COUNT>
7

> <JCHEM_DONOR_COUNT>
7

> <JCHEM_ACIDIC_PKA>
3.17

> <JCHEM_BASIC_PKA>
11.85

> <JCHEM_PHYSIOLOGICAL_CHARGE>
1

> <ALOGPS_LOGP>
0.48

> <JCHEM_LOGP>
0.34

> <ALOGPS_LOGS>
-4.8

> <JCHEM_POLARIZABILITY>
52.34

> <JCHEM_POLAR_SURFACE_AREA>
171.17

> <JCHEM_REFRACTIVITY>
144.87

> <JCHEM_ROTATABLE_BOND_COUNT>
14

> <ALOGPS_SOLUBILITY>
8.86e-03 g/l __ 

$$$$
