
  Mrv0541 02231216092D          

 26 29  0  0  0  0            999 V2000
    3.4990    1.1104    0.0000 N    0  0  0  0  0  0  0  0  0  0  0  0
    2.7845    0.6979    0.0000 C    0  0  0  0  0  0  0  0  0  0  0  0
    2.7845   -0.1271    0.0000 N    0  3  0  0  0  0  0  0  0  0  0  0
    2.0701    1.1104    0.0000 C    0  0  0  0  0  0  0  0  0  0  0  0
    1.3556    0.6979    0.0000 C    0  0  0  0  0  0  0  0  0  0  0  0
    0.6411    1.1104    0.0000 C    0  0  0  0  0  0  0  0  0  0  0  0
   -0.1435    0.8555    0.0000 N    0  0  0  0  0  0  0  0  0  0  0  0
   -0.6284    1.5229    0.0000 C    0  0  0  0  0  0  0  0  0  0  0  0
   -0.1435    2.1904    0.0000 N    0  0  0  0  0  0  0  0  0  0  0  0
    0.6411    1.9354    0.0000 C    0  0  0  0  0  0  0  0  0  0  0  0
    1.3556    2.3479    0.0000 C    0  0  0  0  0  0  0  0  0  0  0  0
    2.0701    1.9354    0.0000 C    0  0  0  0  0  0  0  0  0  0  0  0
    2.7845    2.3479    0.0000 Cl   0  0  0  0  0  0  0  0  0  0  0  0
   -1.4534    1.5229    0.0000 C    0  0  0  0  0  0  0  0  0  0  0  0
   -1.8659    0.8085    0.0000 C    0  0  0  0  0  0  0  0  0  0  0  0
   -2.6909    0.8085    0.0000 C    0  0  0  0  0  0  0  0  0  0  0  0
   -3.1034    1.5229    0.0000 C    0  0  0  0  0  0  0  0  0  0  0  0
   -2.6909    2.2374    0.0000 C    0  0  0  0  0  0  0  0  0  0  0  0
   -3.1034    2.9519    0.0000 C    0  0  0  0  0  0  0  0  0  0  0  0
   -3.9284    2.9519    0.0000 C    0  0  0  0  0  0  0  0  0  0  0  0
   -4.3409    3.6664    0.0000 C    0  0  0  0  0  0  0  0  0  0  0  0
   -3.9284    4.3808    0.0000 C    0  0  0  0  0  0  0  0  0  0  0  0
   -3.1034    4.3808    0.0000 C    0  0  0  0  0  0  0  0  0  0  0  0
   -2.6909    3.6664    0.0000 C    0  0  0  0  0  0  0  0  0  0  0  0
   -1.8659    2.2374    0.0000 C    0  0  0  0  0  0  0  0  0  0  0  0
   -1.4534    2.9519    0.0000 O    0  5  0  0  0  0  0  0  0  0  0  0
  1  2  1  0  0  0  0
  2  3  2  0  0  0  0
  2  4  1  0  0  0  0
  4  5  4  0  0  0  0
  5  6  4  0  0  0  0
  6  7  4  0  0  0  0
  7  8  4  0  0  0  0
  8  9  4  0  0  0  0
  9 10  4  0  0  0  0
  6 10  4  0  0  0  0
 10 11  4  0  0  0  0
 11 12  4  0  0  0  0
  4 12  4  0  0  0  0
 12 13  1  0  0  0  0
  8 14  1  0  0  0  0
 14 15  2  0  0  0  0
 15 16  1  0  0  0  0
 16 17  2  0  0  0  0
 17 18  1  0  0  0  0
 18 19  1  0  0  0  0
 19 20  2  0  0  0  0
 20 21  1  0  0  0  0
 21 22  2  0  0  0  0
 22 23  1  0  0  0  0
 23 24  2  0  0  0  0
 19 24  1  0  0  0  0
 18 25  2  0  0  0  0
 14 25  1  0  0  0  0
 25 26  1  0  0  0  0
M  END
> <DRUGBANK_ID>
DB02366

> <DRUG_GROUPS>
experimental

> <GENERIC_NAME>
CRA_10762

> <CHEMICAL_FORMULA>
C20H14ClN4O

> <MOLECULAR_WEIGHT>
361.804

> <EXACT_MASS>
361.085613797

> <IUPAC_NAME>
2-{5-[amino(iminiumyl)methyl]-6-chloro-1,3-benzodiazol-2-yl}-6-phenylbenzen-1-olate

> <IUPAC_TRADITIONAL_NAME>
2-{5-[amino(iminio)methyl]-6-chloro-1,3-benzodiazol-2-yl}-6-phenylbenzenolate

> <SMILES>
NC(=[NH2+])c1cc2nc(nc2cc1Cl)C1=CC=CC(C2=CC=CC=C2)=C1[O-]

> <JCHEM_ACCEPTOR_COUNT>
4

> <JCHEM_DONOR_COUNT>
2

> <JCHEM_ACIDIC_PKA>
8.37

> <JCHEM_BASIC_PKA>
9.52

> <JCHEM_PHYSIOLOGICAL_CHARGE>
1

> <ALOGPS_LOGP>
1.7

> <JCHEM_LOGP>
4.16

> <ALOGPS_LOGS>
-5.8

> <JCHEM_POLARIZABILITY>
38.76

> <JCHEM_POLAR_SURFACE_AREA>
100.45

> <JCHEM_REFRACTIVITY>
134.44

> <JCHEM_ROTATABLE_BOND_COUNT>
3

> <ALOGPS_SOLUBILITY>
6.55e-04 g/l __ 

$$$$
