
  Mrv0541 02231215552D          

 49 48  0  0  1  0            999 V2000
   18.3711   11.4315    0.0000 C   0  0  0  0  0  0  0  0  0  0  0  0
   19.0855   11.8440    0.0000 C   0  0  0  0  0  0  0  0  0  0  0  0
   19.8000   11.4315    0.0000 C   0  0  0  0  0  0  0  0  0  0  0  0
   20.5145   11.8440    0.0000 C   0  0  0  0  0  0  0  0  0  0  0  0
   21.2289   11.4315    0.0000 C   0  0  0  0  0  0  0  0  0  0  0  0
   21.9434   11.8440    0.0000 C   0  0  0  0  0  0  0  0  0  0  0  0
   22.6579   11.4315    0.0000 C   0  0  0  0  0  0  0  0  0  0  0  0
   23.3724   11.8440    0.0000 C   0  0  0  0  0  0  0  0  0  0  0  0
   24.0868   11.4315    0.0000 C   0  0  0  0  0  0  0  0  0  0  0  0
   24.8013   11.8440    0.0000 C   0  0  0  0  0  0  0  0  0  0  0  0
   25.5158   11.4315    0.0000 C   0  0  0  0  0  0  0  0  0  0  0  0
   26.2302   11.8440    0.0000 C   0  0  0  0  0  0  0  0  0  0  0  0
   26.9447   11.4315    0.0000 C   0  0  0  0  0  0  0  0  0  0  0  0
   27.6592   11.8440    0.0000 C   0  0  0  0  0  0  0  0  0  0  0  0
   28.3737   11.4315    0.0000 C   0  0  0  0  0  0  0  0  0  0  0  0
   29.0881   11.8440    0.0000 C   0  0  0  0  0  0  0  0  0  0  0  0
   29.0881   12.6690    0.0000 O   0  0  0  0  0  0  0  0  0  0  0  0
   29.8026   11.4315    0.0000 O   0  0  0  0  0  0  0  0  0  0  0  0
   30.5171   11.8440    0.0000 C   0  0  0  0  0  0  0  0  0  0  0  0
   31.2315   11.4315    0.0000 C   0  0  1  0  0  0  0  0  0  0  0  0
   31.2315   10.6065    0.0000 C   0  0  0  0  0  0  0  0  0  0  0  0
   31.9460   10.1940    0.0000 O   0  0  0  0  0  0  0  0  0  0  0  0
   31.9460    9.3690    0.0000 P   0  0  2  0  0  0  0  0  0  0  0  0
   31.1210    9.3690    0.0000 O   0  0  0  0  0  0  0  0  0  0  0  0
   32.7710    9.3690    0.0000 O   0  0  0  0  0  0  0  0  0  0  0  0
   31.9460    8.5440    0.0000 O   0  0  0  0  0  0  0  0  0  0  0  0
   32.6605    8.1315    0.0000 C   0  0  0  0  0  0  0  0  0  0  0  0
   32.6605    7.3065    0.0000 C   0  0  1  0  0  0  0  0  0  0  0  0
   31.9460    6.8940    0.0000 O   0  0  0  0  0  0  0  0  0  0  0  0
   33.3749    6.8940    0.0000 C   0  0  0  0  0  0  0  0  0  0  0  0
   33.3749    6.0690    0.0000 O   0  0  0  0  0  0  0  0  0  0  0  0
   31.9460   11.8440    0.0000 O   0  0  0  0  0  0  0  0  0  0  0  0
   32.6605   11.4315    0.0000 C   0  0  0  0  0  0  0  0  0  0  0  0
   32.6605   10.6065    0.0000 O   0  0  0  0  0  0  0  0  0  0  0  0
   33.3749   11.8440    0.0000 C   0  0  0  0  0  0  0  0  0  0  0  0
   34.0894   11.4315    0.0000 C   0  0  0  0  0  0  0  0  0  0  0  0
   34.8039   11.8440    0.0000 C   0  0  0  0  0  0  0  0  0  0  0  0
   35.5184   11.4315    0.0000 C   0  0  0  0  0  0  0  0  0  0  0  0
   36.2328   11.8440    0.0000 C   0  0  0  0  0  0  0  0  0  0  0  0
   36.9473   11.4315    0.0000 C   0  0  0  0  0  0  0  0  0  0  0  0
   37.6618   11.8440    0.0000 C   0  0  0  0  0  0  0  0  0  0  0  0
   38.3762   11.4315    0.0000 C   0  0  0  0  0  0  0  0  0  0  0  0
   39.0907   11.8440    0.0000 C   0  0  0  0  0  0  0  0  0  0  0  0
   39.8052   11.4315    0.0000 C   0  0  0  0  0  0  0  0  0  0  0  0
   40.5197   11.8440    0.0000 C   0  0  0  0  0  0  0  0  0  0  0  0
   41.2341   11.4315    0.0000 C   0  0  0  0  0  0  0  0  0  0  0  0
   41.9486   11.8440    0.0000 C   0  0  0  0  0  0  0  0  0  0  0  0
   42.6631   11.4315    0.0000 C   0  0  0  0  0  0  0  0  0  0  0  0
   43.3775   11.8440    0.0000 C   0  0  0  0  0  0  0  0  0  0  0  0
  1  2  1  0  0  0  0
  2  3  1  0  0  0  0
  3  4  1  0  0  0  0
  4  5  1  0  0  0  0
  5  6  1  0  0  0  0
  6  7  1  0  0  0  0
  7  8  1  0  0  0  0
  8  9  1  0  0  0  0
  9 10  1  0  0  0  0
 10 11  1  0  0  0  0
 11 12  1  0  0  0  0
 12 13  1  0  0  0  0
 13 14  1  0  0  0  0
 14 15  1  0  0  0  0
 15 16  1  0  0  0  0
 16 17  2  0  0  0  0
 16 18  1  0  0  0  0
 18 19  1  0  0  0  0
 19 20  1  0  0  0  0
 20 21  1  0  0  0  0
 21 22  1  0  0  0  0
 23 22  1  6  0  0  0
 23 24  1  1  0  0  0
 23 25  2  0  0  0  0
 23 26  1  0  0  0  0
 26 27  1  0  0  0  0
 27 28  1  0  0  0  0
 28 29  1  6  0  0  0
 28 30  1  0  0  0  0
 30 31  1  0  0  0  0
 20 32  1  6  0  0  0
 32 33  1  0  0  0  0
 33 34  2  0  0  0  0
 33 35  1  0  0  0  0
 35 36  1  0  0  0  0
 36 37  1  0  0  0  0
 37 38  1  0  0  0  0
 38 39  1  0  0  0  0
 39 40  1  0  0  0  0
 40 41  1  0  0  0  0
 41 42  1  0  0  0  0
 42 43  1  0  0  0  0
 43 44  1  0  0  0  0
 44 45  1  0  0  0  0
 45 46  1  0  0  0  0
 46 47  1  0  0  0  0
 47 48  1  0  0  0  0
 48 49  1  0  0  0  0
M  END
> <DRUGBANK_ID>
DB02043

> <DRUG_GROUPS>
experimental

> <GENERIC_NAME>
1,2-Dipalmitoyl-Phosphatidyl-Glycerole

> <CHEMICAL_FORMULA>
C38H75O10P

> <MOLECULAR_WEIGHT>
722.9699

> <EXACT_MASS>
722.509785132

> <IUPAC_NAME>
[(2S)-2,3-bis(hexadecanoyloxy)propoxy][(2S)-2,3-dihydroxypropoxy]phosphinic acid

> <IUPAC_TRADITIONAL_NAME>
(2S)-2,3-bis(hexadecanoyloxy)propoxy(2S)-2,3-dihydroxypropoxyphosphinic acid

> <INCHI_IDENTIFIER>
InChI=1S/C38H75O10P/c1-3-5-7-9-11-13-15-17-19-21-23-25-27-29-37(41)45-33-36(34-47-49(43,44)46-32-35(40)31-39)48-38(42)30-28-26-24-22-20-18-16-14-12-10-8-6-4-2/h35-36,39-40H,3-34H2,1-2H3,(H,43,44)/t35-,36-/m0/s1

> <INCHI_KEY>
InChIKey=BIABMEZBCHDPBV-ZPGRZCPFSA-N

> <SMILES>
CCCCCCCCCCCCCCCC(=O)OC[C@@H](CO[P@](O)(=O)OC[C@@H](O)CO)OC(=O)CCCCCCCCCCCCCCC

> <JCHEM_ACCEPTOR_COUNT>
6

> <JCHEM_DONOR_COUNT>
3

> <JCHEM_ACIDIC_PKA>
1.89

> <JCHEM_BASIC_PKA>
-3

> <JCHEM_PHYSIOLOGICAL_CHARGE>
-1

> <ALOGPS_LOGP>
7.8

> <JCHEM_LOGP>
10.94

> <ALOGPS_LOGS>
-6.7

> <JCHEM_POLARIZABILITY>
88.52

> <JCHEM_POLAR_SURFACE_AREA>
148.82

> <JCHEM_REFRACTIVITY>
195.31

> <JCHEM_ROTATABLE_BOND_COUNT>
40

> <ALOGPS_SOLUBILITY>
1.41e-04 g/l __ 

$$$$
