
  Mrv0541 02231216142D          

  8  7  0  0  0  0            999 V2000
    1.0461    1.4289    0.0000 O   0  0  0  0  0  0  0  0  0  0  0  0
    1.7605    1.8414    0.0000 C   0  0  0  0  0  0  0  0  0  0  0  0
    2.4750    1.4289    0.0000 C   0  0  0  0  0  0  0  0  0  0  0  0
    3.1895    1.8414    0.0000 S   0  0  0  0  0  0  0  0  0  0  0  0
    3.9039    1.4289    0.0000 S   0  0  0  0  0  0  0  0  0  0  0  0
    4.6184    1.8414    0.0000 C   0  0  0  0  0  0  0  0  0  0  0  0
    5.3329    1.4289    0.0000 C   0  0  0  0  0  0  0  0  0  0  0  0
    6.0474    1.8414    0.0000 O   0  0  0  0  0  0  0  0  0  0  0  0
  1  2  1  0  0  0  0
  2  3  1  0  0  0  0
  3  4  1  0  0  0  0
  4  5  1  0  0  0  0
  5  6  1  0  0  0  0
  6  7  1  0  0  0  0
  7  8  1  0  0  0  0
M  END
> <DRUGBANK_ID>
DB02486

> <DRUG_GROUPS>
experimental

> <GENERIC_NAME>
2-Hydroxyethyl Disulfide

> <CHEMICAL_FORMULA>
C4H10O2S2

> <MOLECULAR_WEIGHT>
154.251

> <EXACT_MASS>
154.012220944

> <IUPAC_NAME>
2-[(2-hydroxyethyl)disulfanyl]ethan-1-ol

> <IUPAC_TRADITIONAL_NAME>
2-hydroxyethyl disulfide

> <INCHI_IDENTIFIER>
InChI=1S/C4H10O2S2/c5-1-3-7-8-4-2-6/h5-6H,1-4H2

> <INCHI_KEY>
InChIKey=KYNFOMQIXZUKRK-UHFFFAOYSA-N

> <SMILES>
OCCSSCCO

> <JCHEM_ACCEPTOR_COUNT>
2

> <JCHEM_DONOR_COUNT>
2

> <JCHEM_ACIDIC_PKA>
15.14

> <JCHEM_BASIC_PKA>
-2.6

> <JCHEM_PHYSIOLOGICAL_CHARGE>
0

> <ALOGPS_LOGP>
-0.03

> <JCHEM_LOGP>
-0.54

> <ALOGPS_LOGS>
-0.63

> <JCHEM_POLARIZABILITY>
15.96

> <JCHEM_POLAR_SURFACE_AREA>
40.46

> <JCHEM_REFRACTIVITY>
39.9

> <JCHEM_ROTATABLE_BOND_COUNT>
5

> <ALOGPS_SOLUBILITY>
3.65e+01 g/l __ 

$$$$
