
  Mrv0541 02231216012D          

 16 15  0  0  1  0            999 V2000
    2.2836   -2.1434    0.0000 O   0  0  0  0  0  0  0  0  0  0  0  0
    2.9980   -2.5559    0.0000 C   0  0  0  0  0  0  0  0  0  0  0  0
    3.7125   -2.1434    0.0000 C   0  0  1  0  0  0  0  0  0  0  0  0
    3.7125   -1.3184    0.0000 O   0  0  0  0  0  0  0  0  0  0  0  0
    4.4270   -2.5559    0.0000 C   0  0  2  0  0  0  0  0  0  0  0  0
    4.4270   -3.3809    0.0000 O   0  0  0  0  0  0  0  0  0  0  0  0
    5.1414   -2.1434    0.0000 C   0  0  1  0  0  0  0  0  0  0  0  0
    5.1414   -1.3184    0.0000 O   0  0  0  0  0  0  0  0  0  0  0  0
    5.8559   -2.5559    0.0000 C   0  0  2  0  0  0  0  0  0  0  0  0
    5.8559   -3.3809    0.0000 O   0  0  0  0  0  0  0  0  0  0  0  0
    6.5704   -2.1434    0.0000 C   0  0  0  0  0  0  0  0  0  0  0  0
    7.2849   -2.5559    0.0000 O   0  0  0  0  0  0  0  0  0  0  0  0
    7.9993   -2.1434    0.0000 P   0  0  0  0  0  0  0  0  0  0  0  0
    8.7138   -1.7309    0.0000 O   0  0  0  0  0  0  0  0  0  0  0  0
    8.4118   -2.8579    0.0000 O   0  0  0  0  0  0  0  0  0  0  0  0
    7.5868   -1.4289    0.0000 O   0  0  0  0  0  0  0  0  0  0  0  0
  1  2  1  0  0  0  0
  2  3  1  0  0  0  0
  3  4  1  1  0  0  0
  3  5  1  0  0  0  0
  5  6  1  1  0  0  0
  5  7  1  0  0  0  0
  7  8  1  1  0  0  0
  7  9  1  0  0  0  0
  9 10  1  1  0  0  0
  9 11  1  0  0  0  0
 11 12  1  0  0  0  0
 12 13  1  0  0  0  0
 13 14  1  0  0  0  0
 13 15  1  0  0  0  0
 13 16  2  0  0  0  0
M  END
> <DRUGBANK_ID>
DB02171

> <DRUG_GROUPS>
experimental

> <GENERIC_NAME>
D-Fructose-6-Phosphate (Open Form)

> <CHEMICAL_FORMULA>
C6H15O9P

> <MOLECULAR_WEIGHT>
262.1517

> <EXACT_MASS>
262.04536859

> <IUPAC_NAME>
{[(2R,3S,4S,5R)-2,3,4,5,6-pentahydroxyhexyl]oxy}phosphonic acid

> <IUPAC_TRADITIONAL_NAME>
[(2R,3S,4S,5R)-2,3,4,5,6-pentahydroxyhexyl]oxyphosphonic acid

> <INCHI_IDENTIFIER>
InChI=1S/C6H15O9P/c7-1-3(8)5(10)6(11)4(9)2-15-16(12,13)14/h3-11H,1-2H2,(H2,12,13,14)/t3-,4-,5+,6+/m1/s1

> <INCHI_KEY>
InChIKey=GACTWZZMVMUKNG-ZXXMMSQZSA-N

> <SMILES>
OC[C@@H](O)[C@H](O)[C@@H](O)[C@H](O)COP(O)(O)=O

> <JCHEM_ACCEPTOR_COUNT>
8

> <JCHEM_DONOR_COUNT>
7

> <JCHEM_ACIDIC_PKA>
1.49

> <JCHEM_BASIC_PKA>
-3

> <JCHEM_PHYSIOLOGICAL_CHARGE>
-2

> <ALOGPS_LOGP>
-2.3

> <JCHEM_LOGP>
-3.9

> <ALOGPS_LOGS>
-0.99

> <JCHEM_POLARIZABILITY>
21.66

> <JCHEM_POLAR_SURFACE_AREA>
167.91

> <JCHEM_REFRACTIVITY>
49.28

> <JCHEM_ROTATABLE_BOND_COUNT>
7

> <ALOGPS_SOLUBILITY>
2.66e+01 g/l __ 

$$$$
