
  Mrv0541 02231216302D          

  7  6  0  0  0  0            999 V2000
   -0.1914    0.7146    0.0000 C   0  0  0  0  0  0  0  0  0  0  0  0
    0.5230    1.1271    0.0000 C   0  0  0  0  0  0  0  0  0  0  0  0
    1.2376    0.7146    0.0000 O   0  0  0  0  0  0  0  0  0  0  0  0
    1.9521    1.1271    0.0000 C   0  0  0  0  0  0  0  0  0  0  0  0
    1.9521    1.9521    0.0000 O   0  0  0  0  0  0  0  0  0  0  0  0
    2.6666    0.7146    0.0000 N   0  0  0  0  0  0  0  0  0  0  0  0
    3.3812    1.1271    0.0000 C   0  0  0  0  0  0  0  0  0  0  0  0
  1  2  1  0  0  0  0
  2  3  1  0  0  0  0
  3  4  1  0  0  0  0
  4  5  2  0  0  0  0
  4  6  1  0  0  0  0
  6  7  1  0  0  0  0
M  END
> <DRUGBANK_ID>
DB02856

> <DRUG_GROUPS>
experimental

> <GENERIC_NAME>
Methyl-Carbamic Acid Ethyl Ester

> <CHEMICAL_FORMULA>
C4H9NO2

> <MOLECULAR_WEIGHT>
103.1198

> <EXACT_MASS>
103.063328537

> <IUPAC_NAME>
ethyl N-methylcarbamate

> <IUPAC_TRADITIONAL_NAME>
ethyl N-methylcarbamate

> <INCHI_IDENTIFIER>
InChI=1S/C4H9NO2/c1-3-7-4(6)5-2/h3H2,1-2H3,(H,5,6)

> <INCHI_KEY>
InChIKey=SURZCVYFPAXNGN-UHFFFAOYSA-N

> <SMILES>
CCOC(=O)NC

> <JCHEM_ACCEPTOR_COUNT>
1

> <JCHEM_DONOR_COUNT>
1

> <JCHEM_ACIDIC_PKA>
15.22

> <JCHEM_PHYSIOLOGICAL_CHARGE>
0

> <ALOGPS_LOGP>
0.4

> <JCHEM_LOGP>
0.17

> <ALOGPS_LOGS>
0.49

> <JCHEM_POLARIZABILITY>
10.77

> <JCHEM_POLAR_SURFACE_AREA>
38.33

> <JCHEM_REFRACTIVITY>
25.73

> <JCHEM_ROTATABLE_BOND_COUNT>
2

> <ALOGPS_SOLUBILITY>
3.21e+02 g/l __ 

$$$$
