
  Mrv0541 02231215562D          

  7  7  0  0  0  0            999 V2000
    0.7145    2.0625    0.0000 O   0  0  0  0  0  0  0  0  0  0  0  0
    0.7145    1.2375    0.0000 C   0  0  0  0  0  0  0  0  0  0  0  0
    1.4289    0.8250    0.0000 C   0  0  0  0  0  0  0  0  0  0  0  0
    1.4289    0.0000    0.0000 C   0  0  0  0  0  0  0  0  0  0  0  0
    0.7145   -0.4125    0.0000 C   0  0  0  0  0  0  0  0  0  0  0  0
    0.0000    0.0000    0.0000 C   0  0  0  0  0  0  0  0  0  0  0  0
    0.0000    0.8250    0.0000 C   0  0  0  0  0  0  0  0  0  0  0  0
  1  2  2  0  0  0  0
  2  3  1  0  0  0  0
  3  4  1  0  0  0  0
  4  5  1  0  0  0  0
  5  6  1  0  0  0  0
  6  7  1  0  0  0  0
  2  7  1  0  0  0  0
M  END
> <DRUGBANK_ID>
DB02060

> <DRUG_GROUPS>
experimental

> <GENERIC_NAME>
Cyclohexanone

> <CHEMICAL_FORMULA>
C6H10O

> <MOLECULAR_WEIGHT>
98.143

> <EXACT_MASS>
98.073164942

> <IUPAC_NAME>
cyclohexanone

> <IUPAC_TRADITIONAL_NAME>
cyclohexanone

> <INCHI_IDENTIFIER>
InChI=1S/C6H10O/c7-6-4-2-1-3-5-6/h1-5H2

> <INCHI_KEY>
InChIKey=JHIVVAPYMSGYDF-UHFFFAOYSA-N

> <SMILES>
O=C1CCCCC1

> <JCHEM_ACCEPTOR_COUNT>
1

> <JCHEM_DONOR_COUNT>
0

> <JCHEM_BASIC_PKA>
-7.3

> <JCHEM_PHYSIOLOGICAL_CHARGE>
0

> <ALOGPS_LOGP>
1.03

> <JCHEM_LOGP>
1.49

> <ALOGPS_LOGS>
-0.7

> <JCHEM_POLARIZABILITY>
11.15

> <JCHEM_POLAR_SURFACE_AREA>
17.07

> <JCHEM_REFRACTIVITY>
28.25

> <JCHEM_ROTATABLE_BOND_COUNT>
0

> <ALOGPS_SOLUBILITY>
1.96e+01 g/l __ 

$$$$
