
  Mrv0541 02231216162D          

  7  6  0  0  0  0            999 V2000
   -0.1914    0.7145    0.0000 N   0  0  0  0  0  0  0  0  0  0  0  0
    0.5230    1.1270    0.0000 C   0  0  0  0  0  0  0  0  0  0  0  0
    1.2375    0.7145    0.0000 C   0  0  0  0  0  0  0  0  0  0  0  0
    1.9520    1.1270    0.0000 C   0  0  0  0  0  0  0  0  0  0  0  0
    2.6664    0.7145    0.0000 C   0  0  0  0  0  0  0  0  0  0  0  0
    3.3809    1.1270    0.0000 O   0  0  0  0  0  0  0  0  0  0  0  0
    2.6664   -0.1105    0.0000 O   0  0  0  0  0  0  0  0  0  0  0  0
  1  2  1  0  0  0  0
  2  3  1  0  0  0  0
  3  4  1  0  0  0  0
  4  5  1  0  0  0  0
  5  6  1  0  0  0  0
  5  7  2  0  0  0  0
M  END
> <DRUGBANK_ID>
DB02530

> <DRUG_GROUPS>
experimental

> <GENERIC_NAME>
Gamma(Amino)-Butyric Acid

> <CHEMICAL_FORMULA>
C4H9NO2

> <MOLECULAR_WEIGHT>
103.1198

> <EXACT_MASS>
103.063328537

> <IUPAC_NAME>
4-aminobutanoic acid

> <IUPAC_TRADITIONAL_NAME>
gamma(amino)-butyric acid

> <INCHI_IDENTIFIER>
InChI=1S/C4H9NO2/c5-3-1-2-4(6)7/h1-3,5H2,(H,6,7)

> <INCHI_KEY>
InChIKey=BTCSSZJGUNDROE-UHFFFAOYSA-N

> <SMILES>
NCCCC(O)=O

> <JCHEM_ACCEPTOR_COUNT>
3

> <JCHEM_DONOR_COUNT>
2

> <JCHEM_ACIDIC_PKA>
4.53

> <JCHEM_BASIC_PKA>
10.22

> <JCHEM_PHYSIOLOGICAL_CHARGE>
0

> <ALOGPS_LOGP>
-3

> <JCHEM_LOGP>
-2.9

> <ALOGPS_LOGS>
0.55

> <JCHEM_POLARIZABILITY>
10.62

> <JCHEM_POLAR_SURFACE_AREA>
63.32

> <JCHEM_REFRACTIVITY>
25.46

> <JCHEM_ROTATABLE_BOND_COUNT>
3

> <ALOGPS_SOLUBILITY>
3.65e+02 g/l __ 

$$$$
