
  Mrv0541 02231216142D          

 38 42  0  0  1  0            999 V2000
  -10.0458    1.6209    0.0000 O   0  0  0  0  0  0  0  0  0  0  0  0
   -9.2253    1.5347    0.0000 C   0  0  1  0  0  0  0  0  0  0  0  0
   -8.6733    2.1478    0.0000 O   0  0  0  0  0  0  0  0  0  0  0  0
   -7.9196    1.8122    0.0000 C   0  0  2  0  0  0  0  0  0  0  0  0
   -7.2052    2.2247    0.0000 C   0  0  0  0  0  0  0  0  0  0  0  0
   -6.4907    1.8122    0.0000 O   0  0  0  0  0  0  0  0  0  0  0  0
   -5.7762    2.2247    0.0000 P   0  0  2  0  0  0  0  0  0  0  0  0
   -5.3637    1.5103    0.0000 O   0  0  0  0  0  0  0  0  0  0  0  0
   -6.1887    2.9392    0.0000 O   0  0  0  0  0  0  0  0  0  0  0  0
   -5.0617    2.6372    0.0000 O   0  0  0  0  0  0  0  0  0  0  0  0
   -4.3473    2.2247    0.0000 P   0  0  1  0  0  0  0  0  0  0  0  0
   -4.7598    1.5103    0.0000 O   0  0  0  0  0  0  0  0  0  0  0  0
   -3.9348    2.9392    0.0000 O   0  0  0  0  0  0  0  0  0  0  0  0
   -3.6328    1.8122    0.0000 O   0  0  0  0  0  0  0  0  0  0  0  0
   -2.9183    2.2247    0.0000 C   0  0  0  0  0  0  0  0  0  0  0  0
   -2.2039    1.8122    0.0000 C   0  0  2  0  0  0  0  0  0  0  0  0
   -1.4502    2.1478    0.0000 O   0  0  0  0  0  0  0  0  0  0  0  0
   -0.8981    1.5347    0.0000 C   0  0  2  0  0  0  0  0  0  0  0  0
   -1.3106    0.8202    0.0000 C   0  0  2  0  0  0  0  0  0  0  0  0
   -0.9751    0.0665    0.0000 O   0  0  0  0  0  0  0  0  0  0  0  0
   -2.1176    0.9917    0.0000 C   0  0  1  0  0  0  0  0  0  0  0  0
   -2.7307    0.4397    0.0000 O   0  0  0  0  0  0  0  0  0  0  0  0
   -0.0777    1.6209    0.0000 N   0  0  0  0  0  0  0  0  0  0  0  0
    0.4744    1.0078    0.0000 C   0  0  0  0  0  0  0  0  0  0  0  0
    1.2280    1.3434    0.0000 N   0  0  0  0  0  0  0  0  0  0  0  0
    1.1418    2.1639    0.0000 C   0  0  0  0  0  0  0  0  0  0  0  0
    0.3348    2.3354    0.0000 C   0  0  0  0  0  0  0  0  0  0  0  0
    0.0799    3.1200    0.0000 N   0  0  0  0  0  0  0  0  0  0  0  0
    0.6319    3.7331    0.0000 C   0  0  0  0  0  0  0  0  0  0  0  0
    1.4389    3.5616    0.0000 N   0  0  0  0  0  0  0  0  0  0  0  0
    2.1063    4.0465    0.0000 C   0  0  0  0  0  0  0  0  0  0  0  0
    2.7738    3.5616    0.0000 C   0  0  0  0  0  0  0  0  0  0  0  0
    2.5188    2.7770    0.0000 N   0  0  0  0  0  0  0  0  0  0  0  0
    1.6938    2.7770    0.0000 C   0  0  0  0  0  0  0  0  0  0  0  0
   -8.0059    0.9917    0.0000 C   0  0  1  0  0  0  0  0  0  0  0  0
   -7.3928    0.4397    0.0000 O   0  0  0  0  0  0  0  0  0  0  0  0
   -8.8128    0.8202    0.0000 C   0  0  2  0  0  0  0  0  0  0  0  0
   -9.1484    0.0665    0.0000 O   0  0  0  0  0  0  0  0  0  0  0  0
  2  1  1  1  0  0  0
  2  3  1  0  0  0  0
  3  4  1  0  0  0  0
  4  5  1  6  0  0  0
  5  6  1  0  0  0  0
  7  6  1  6  0  0  0
  7  8  1  1  0  0  0
  7  9  2  0  0  0  0
  7 10  1  0  0  0  0
 11 10  1  1  0  0  0
 11 12  1  6  0  0  0
 11 13  2  0  0  0  0
 11 14  1  0  0  0  0
 14 15  1  0  0  0  0
 16 15  1  6  0  0  0
 16 17  1  0  0  0  0
 17 18  1  0  0  0  0
 18 19  1  0  0  0  0
 19 20  1  6  0  0  0
 19 21  1  0  0  0  0
 16 21  1  0  0  0  0
 21 22  1  1  0  0  0
 18 23  1  1  0  0  0
 23 24  1  0  0  0  0
 24 25  2  0  0  0  0
 25 26  1  0  0  0  0
 26 27  2  0  0  0  0
 23 27  1  0  0  0  0
 27 28  1  0  0  0  0
 28 29  2  0  0  0  0
 29 30  1  0  0  0  0
 30 31  1  0  0  0  0
 31 32  2  0  0  0  0
 32 33  1  0  0  0  0
 33 34  2  0  0  0  0
 26 34  1  0  0  0  0
 30 34  1  0  0  0  0
  4 35  1  0  0  0  0
 35 36  1  1  0  0  0
 35 37  1  0  0  0  0
  2 37  1  0  0  0  0
 37 38  1  6  0  0  0
M  END
> <DRUGBANK_ID>
DB02483

> <DRUG_GROUPS>
experimental

> <GENERIC_NAME>
Etheno-Nad

> <CHEMICAL_FORMULA>
C17H23N5O14P2

> <MOLECULAR_WEIGHT>
583.3371

> <EXACT_MASS>
583.071673493

> <IUPAC_NAME>
[({[(2S,3R,4R,5R)-3,4-dihydroxy-5-{3H-imidazo[2,1-f]purin-3-yl}oxolan-2-yl]methoxy}(hydroxy)phosphoryl)oxy]({[(2R,3S,4S,5S)-3,4,5-trihydroxyoxolan-2-yl]methoxy})phosphinic acid

> <IUPAC_TRADITIONAL_NAME>
{[(2S,3R,4R,5R)-3,4-dihydroxy-5-{imidazo[2,1-f]purin-3-yl}oxolan-2-yl]methoxy(hydroxy)phosphoryl}oxy[(2R,3S,4S,5S)-3,4,5-trihydroxyoxolan-2-yl]methoxyphosphinic acid

> <INCHI_IDENTIFIER>
InChI=1S/C17H23N5O14P2/c23-10-7(3-32-37(28,29)36-38(30,31)33-4-8-11(24)13(26)17(27)35-8)34-16(12(10)25)22-6-19-9-14-18-1-2-21(14)5-20-15(9)22/h1-2,5-8,10-13,16-17,23-27H,3-4H2,(H,28,29)(H,30,31)/t7-,8+,10-,11+,12+,13-,16+,17-/m0/s1

> <INCHI_KEY>
InChIKey=LWAISUABIKYXTN-BVNNLCGGSA-N

> <SMILES>
O[C@H]1O[C@H](CO[P@](O)(=O)O[P@@](O)(=O)OC[C@@H]2O[C@H]([C@H](O)[C@H]2O)N2C=NC3=C2N=CN2C=CN=C32)[C@@H](O)[C@@H]1O

> <JCHEM_ACCEPTOR_COUNT>
14

> <JCHEM_DONOR_COUNT>
7

> <JCHEM_ACIDIC_PKA>
1.86

> <JCHEM_BASIC_PKA>
4.97

> <JCHEM_PHYSIOLOGICAL_CHARGE>
-2

> <ALOGPS_LOGP>
-1.3

> <JCHEM_LOGP>
-6.4

> <ALOGPS_LOGS>
-2.2

> <JCHEM_POLARIZABILITY>
49.39

> <JCHEM_POLAR_SURFACE_AREA>
269.91

> <JCHEM_REFRACTIVITY>
117.52

> <JCHEM_ROTATABLE_BOND_COUNT>
9

> <ALOGPS_SOLUBILITY>
3.50e+00 g/l __ 

$$$$
