
  Mrv0541 02231216302D          

 31 33  0  0  0  0            999 V2000
   -2.8579    9.6536    0.0000 C   0  0  0  0  0  0  0  0  0  0  0  0
   -2.1434    9.2411    0.0000 O   0  0  0  0  0  0  0  0  0  0  0  0
   -2.1434    8.4161    0.0000 C   0  0  0  0  0  0  0  0  0  0  0  0
   -1.4289    8.0036    0.0000 C   0  0  0  0  0  0  0  0  0  0  0  0
   -1.4289    7.1786    0.0000 C   0  0  0  0  0  0  0  0  0  0  0  0
   -2.1434    6.7661    0.0000 C   0  0  0  0  0  0  0  0  0  0  0  0
   -2.8579    7.1786    0.0000 C   0  0  0  0  0  0  0  0  0  0  0  0
   -2.8579    8.0036    0.0000 C   0  0  0  0  0  0  0  0  0  0  0  0
   -2.1434    5.9411    0.0000 C   0  0  0  0  0  0  0  0  0  0  0  0
   -1.4289    5.5286    0.0000 C   0  0  0  0  0  0  0  0  0  0  0  0
   -0.7145    5.9411    0.0000 C   0  0  0  0  0  0  0  0  0  0  0  0
   -1.4289    4.7036    0.0000 C   0  0  0  0  0  0  0  0  0  0  0  0
   -2.1434    4.2911    0.0000 C   0  0  0  0  0  0  0  0  0  0  0  0
   -2.8579    4.7036    0.0000 C   0  0  0  0  0  0  0  0  0  0  0  0
   -2.8579    5.5286    0.0000 C   0  0  0  0  0  0  0  0  0  0  0  0
   -3.5724    5.9411    0.0000 S   0  0  0  0  0  0  0  0  0  0  0  0
   -4.2868    6.3536    0.0000 C   0  0  0  0  0  0  0  0  0  0  0  0
   -3.1599    6.6555    0.0000 O   0  0  0  0  0  0  0  0  0  0  0  0
   -3.9849    5.2266    0.0000 O   0  0  0  0  0  0  0  0  0  0  0  0
   -0.7145    4.2911    0.0000 C   0  0  0  0  0  0  0  0  0  0  0  0
    0.0000    4.7036    0.0000 O   0  0  0  0  0  0  0  0  0  0  0  0
   -0.7145    3.4661    0.0000 C   0  0  0  0  0  0  0  0  0  0  0  0
   -0.0470    2.9812    0.0000 C   0  0  0  0  0  0  0  0  0  0  0  0
    0.7376    3.2361    0.0000 O   0  0  0  0  0  0  0  0  0  0  0  0
   -0.3020    2.1965    0.0000 N   0  0  0  0  0  0  0  0  0  0  0  0
   -1.1270    2.1965    0.0000 N   0  0  0  0  0  0  0  0  0  0  0  0
   -1.3819    2.9812    0.0000 C   0  0  0  0  0  0  0  0  0  0  0  0
    0.1830    1.5291    0.0000 C   0  0  0  0  0  0  0  0  0  0  0  0
    0.6679    0.8617    0.0000 C   0  0  0  0  0  0  0  0  0  0  0  0
   -0.4845    1.0442    0.0000 C   0  0  0  0  0  0  0  0  0  0  0  0
    0.8504    2.0140    0.0000 C   0  0  0  0  0  0  0  0  0  0  0  0
  1  2  1  0  0  0  0
  2  3  1  0  0  0  0
  3  4  2  0  0  0  0
  4  5  1  0  0  0  0
  5  6  2  0  0  0  0
  6  7  1  0  0  0  0
  7  8  2  0  0  0  0
  3  8  1  0  0  0  0
  6  9  1  0  0  0  0
  9 10  2  0  0  0  0
 10 11  1  0  0  0  0
 10 12  1  0  0  0  0
 12 13  2  0  0  0  0
 13 14  1  0  0  0  0
 14 15  2  0  0  0  0
  9 15  1  0  0  0  0
 15 16  1  0  0  0  0
 16 17  1  0  0  0  0
 16 18  1  0  0  0  0
 16 19  1  0  0  0  0
 12 20  1  0  0  0  0
 20 21  2  0  0  0  0
 20 22  1  0  0  0  0
 22 23  2  0  0  0  0
 23 24  1  0  0  0  0
 23 25  1  0  0  0  0
 25 26  1  0  0  0  0
 26 27  2  0  0  0  0
 22 27  1  0  0  0  0
 25 28  1  0  0  0  0
 28 29  1  0  0  0  0
 28 30  1  0  0  0  0
 28 31  1  0  0  0  0
M  END
> <DRUGBANK_ID>
DB02850

> <DRUG_GROUPS>
experimental

> <GENERIC_NAME>
(1-Tert-Butyl-5-Hydroxy-1h-Pyrazol-4-Yl)-(6-Methanesulfonyl-4'-Methoxy-2-Methyl-Biphenyl-3-Yl)-Methanone

> <CHEMICAL_FORMULA>
C23H28N2O5S

> <MOLECULAR_WEIGHT>
444.544

> <EXACT_MASS>
444.171892706

> <IUPAC_NAME>
{4-[(1-tert-butyl-5-hydroxy-1H-pyrazol-4-yl)carbonyl]-2-(4-methoxyphenyl)-3-methylphenyl}(methyl)-$l^{4}-sulfanediol

> <IUPAC_TRADITIONAL_NAME>
{4-[(1-tert-butyl-5-hydroxypyrazol-4-yl)carbonyl]-2-(4-methoxyphenyl)-3-methylphenyl}(methyl)-$l^{4}-sulfanediol

> <INCHI_IDENTIFIER>
InChI=1S/C23H28N2O5S/c1-14-17(21(26)18-13-24-25(22(18)27)23(2,3)4)11-12-19(31(6,28)29)20(14)15-7-9-16(30-5)10-8-15/h7-13,27-29H,1-6H3

> <INCHI_KEY>
InChIKey=GXVKJVRSQXCDKX-UHFFFAOYSA-N

> <SMILES>
COC1=CC=C(C=C1)C1=C(C)C(=CC=C1S(C)(O)O)C(=O)C1=C(O)N(N=C1)C(C)(C)C

> <JCHEM_ACCEPTOR_COUNT>
6

> <JCHEM_DONOR_COUNT>
3

> <JCHEM_ACIDIC_PKA>
5.9

> <JCHEM_BASIC_PKA>
1.24

> <JCHEM_PHYSIOLOGICAL_CHARGE>
-1

> <ALOGPS_LOGP>
4.06

> <JCHEM_LOGP>
4.21

> <ALOGPS_LOGS>
-5

> <JCHEM_POLARIZABILITY>
48.38

> <JCHEM_POLAR_SURFACE_AREA>
104.81

> <JCHEM_REFRACTIVITY>
133.46

> <JCHEM_ROTATABLE_BOND_COUNT>
6

> <ALOGPS_SOLUBILITY>
4.36e-03 g/l __ 

$$$$
