
  Mrv0541 02231216262D          

  8  7  0  0  1  0            999 V2000
    1.9520    1.9520    0.0000 N   0  0  0  0  0  0  0  0  0  0  0  0
    1.9520    1.1270    0.0000 C   0  0  1  0  0  0  0  0  0  0  0  0
    1.2375    0.7145    0.0000 C   0  0  0  0  0  0  0  0  0  0  0  0
    0.5230    1.1270    0.0000 S   0  0  0  0  0  0  0  0  0  0  0  0
   -0.1914    0.7145    0.0000 S   0  0  0  0  0  0  0  0  0  0  0  0
    2.6664    0.7145    0.0000 C   0  0  0  0  0  0  0  0  0  0  0  0
    3.3809    1.1270    0.0000 O   0  0  0  0  0  0  0  0  0  0  0  0
    2.6664   -0.1105    0.0000 O   0  0  0  0  0  0  0  0  0  0  0  0
  2  1  1  6  0  0  0
  2  3  1  0  0  0  0
  3  4  1  0  0  0  0
  4  5  1  0  0  0  0
  2  6  1  0  0  0  0
  6  7  1  0  0  0  0
  6  8  2  0  0  0  0
M  END
> <DRUGBANK_ID>
DB02761

> <DRUG_GROUPS>
experimental

> <GENERIC_NAME>
S-Mercaptocysteine

> <CHEMICAL_FORMULA>
C3H7NO2S2

> <MOLECULAR_WEIGHT>
153.223

> <EXACT_MASS>
152.991819853

> <IUPAC_NAME>
(2R)-2-amino-3-disulfanylpropanoic acid

> <IUPAC_TRADITIONAL_NAME>
S-mercaptocysteine

> <INCHI_IDENTIFIER>
InChI=1S/C3H7NO2S2/c4-2(1-8-7)3(5)6/h2,7H,1,4H2,(H,5,6)/t2-/m0/s1

> <INCHI_KEY>
InChIKey=XBKONSCREBSMCS-REOHCLBHSA-N

> <SMILES>
N[C@@H](CSS)C(O)=O

> <JCHEM_ACCEPTOR_COUNT>
3

> <JCHEM_DONOR_COUNT>
3

> <JCHEM_ACIDIC_PKA>
2.04

> <JCHEM_BASIC_PKA>
8.9

> <JCHEM_PHYSIOLOGICAL_CHARGE>
0

> <ALOGPS_LOGP>
-2

> <JCHEM_LOGP>
-2.4

> <ALOGPS_LOGS>
-1

> <JCHEM_POLARIZABILITY>
14.3

> <JCHEM_POLAR_SURFACE_AREA>
63.32

> <JCHEM_REFRACTIVITY>
33.99

> <JCHEM_ROTATABLE_BOND_COUNT>
3

> <ALOGPS_SOLUBILITY>
1.43e+01 g/l __ 

$$$$
