
  Mrv0541 02231215582D          

  4  3  0  0  0  0            999 V2000
    2.0625   -0.7145    0.0000 N   0  0  0  0  0  0  0  0  0  0  0  0
    1.2375   -0.7145    0.0000 C   0  0  0  0  0  0  0  0  0  0  0  0
    0.8250    0.0000    0.0000 C   0  0  0  0  0  0  0  0  0  0  0  0
    0.0000    0.0000    0.0000 N   0  0  0  0  0  0  0  0  0  0  0  0
  1  2  1  0  0  0  0
  2  3  1  0  0  0  0
  3  4  2  0  0  0  0
M  END
> <DRUGBANK_ID>
DB02108

> <DRUG_GROUPS>
experimental

> <GENERIC_NAME>
2-Aminoethanimidic Acid

> <CHEMICAL_FORMULA>
C2H6N2

> <MOLECULAR_WEIGHT>
58.0824

> <EXACT_MASS>
58.053098202

> <IUPAC_NAME>
2-iminoethan-1-amine

> <IUPAC_TRADITIONAL_NAME>
2-aminoethanimidic acid

> <INCHI_IDENTIFIER>
InChI=1S/C2H6N2/c3-1-2-4/h1,3H,2,4H2

> <INCHI_KEY>
InChIKey=AXQVKDQRBAXYBP-UHFFFAOYSA-N

> <SMILES>
NCC=N

> <JCHEM_ACCEPTOR_COUNT>
2

> <JCHEM_DONOR_COUNT>
2

> <JCHEM_BASIC_PKA>
10.13

> <JCHEM_PHYSIOLOGICAL_CHARGE>
1

> <ALOGPS_LOGP>
-2.1

> <JCHEM_LOGP>
-1.3

> <ALOGPS_LOGS>
-0.71

> <JCHEM_POLARIZABILITY>
6.29

> <JCHEM_POLAR_SURFACE_AREA>
49.87

> <JCHEM_REFRACTIVITY>
27.55

> <JCHEM_ROTATABLE_BOND_COUNT>
1

> <ALOGPS_SOLUBILITY>
1.14e+01 g/l __ 

$$$$
