
  Mrv0541 02231215582D          

 12 12  0  0  1  0            999 V2000
    2.1434    1.2375    0.0000 N   0  0  0  0  0  0  0  0  0  0  0  0
    1.4289    0.8250    0.0000 C   0  0  1  0  0  0  0  0  0  0  0  0
    1.4289    0.0000    0.0000 C   0  0  0  0  0  0  0  0  0  0  0  0
    0.7145   -0.4125    0.0000 C   0  0  0  0  0  0  0  0  0  0  0  0
    0.7145   -1.2375    0.0000 C   0  0  0  0  0  0  0  0  0  0  0  0
    0.0000   -1.6500    0.0000 O   0  0  0  0  0  0  0  0  0  0  0  0
    0.0000    0.0000    0.0000 C   0  0  1  0  0  0  0  0  0  0  0  0
   -0.7145   -0.4125    0.0000 O   0  0  0  0  0  0  0  0  0  0  0  0
    0.0000    0.8250    0.0000 C   0  0  2  0  0  0  0  0  0  0  0  0
   -0.7145    1.2375    0.0000 O   0  0  0  0  0  0  0  0  0  0  0  0
    0.7145    1.2375    0.0000 C   0  0  2  0  0  0  0  0  0  0  0  0
    0.7145    2.0625    0.0000 O   0  0  0  0  0  0  0  0  0  0  0  0
  2  1  1  1  0  0  0
  2  3  1  0  0  0  0
  3  4  2  0  0  0  0
  4  5  1  0  0  0  0
  5  6  1  0  0  0  0
  4  7  1  0  0  0  0
  7  8  1  1  0  0  0
  7  9  1  0  0  0  0
  9 10  1  6  0  0  0
  9 11  1  0  0  0  0
  2 11  1  0  0  0  0
 11 12  1  6  0  0  0
M  END
> <DRUGBANK_ID>
DB02120

> <DRUG_GROUPS>
experimental

> <GENERIC_NAME>
6-Amino-4-Hydroxymethyl-Cyclohex-4-Ene-1,2,3-Triol

> <CHEMICAL_FORMULA>
C7H13NO4

> <MOLECULAR_WEIGHT>
175.1824

> <EXACT_MASS>
175.084457909

> <IUPAC_NAME>
(1R,2S,3R,6S)-6-amino-4-(hydroxymethyl)cyclohex-4-ene-1,2,3-triol

> <IUPAC_TRADITIONAL_NAME>
(1R,2S,3R,6S)-6-amino-4-(hydroxymethyl)cyclohex-4-ene-1,2,3-triol

> <INCHI_IDENTIFIER>
InChI=1S/C7H13NO4/c8-4-1-3(2-9)5(10)7(12)6(4)11/h1,4-7,9-12H,2,8H2/t4-,5+,6+,7-/m0/s1

> <INCHI_KEY>
InChIKey=XPHOBMULWMGEBA-WNJXEPBRSA-N

> <SMILES>
N[C@H]1C=C(CO)[C@@H](O)[C@H](O)[C@@H]1O

> <JCHEM_ACCEPTOR_COUNT>
5

> <JCHEM_DONOR_COUNT>
5

> <JCHEM_ACIDIC_PKA>
12.83

> <JCHEM_BASIC_PKA>
8.3

> <JCHEM_PHYSIOLOGICAL_CHARGE>
1

> <ALOGPS_LOGP>
-2.3

> <JCHEM_LOGP>
-3.1

> <ALOGPS_LOGS>
0.29

> <JCHEM_POLARIZABILITY>
16.82

> <JCHEM_POLAR_SURFACE_AREA>
106.94

> <JCHEM_REFRACTIVITY>
41.88

> <JCHEM_ROTATABLE_BOND_COUNT>
1

> <ALOGPS_SOLUBILITY>
3.42e+02 g/l __ 

$$$$
