DQO
  Mrv0541 02231216312D          

 33 37  0  0  0  0            999 V2000
    0.3829   -0.7200    0.0000 C    0  0  0  0  0  0  0  0  0  0  0  0
   -0.3316   -1.1325    0.0000 C    0  0  0  0  0  0  0  0  0  0  0  0
   -1.0461   -0.7200    0.0000 C    0  0  0  0  0  0  0  0  0  0  0  0
   -1.0461    0.1050    0.0000 C    0  0  0  0  0  0  0  0  0  0  0  0
   -0.3316    0.5175    0.0000 C    0  0  0  0  0  0  0  0  0  0  0  0
    0.3829    0.1050    0.0000 C    0  0  0  0  0  0  0  0  0  0  0  0
   -1.7605    0.5175    0.0000 N    0  0  0  0  0  0  0  0  0  0  0  0
   -0.3316   -1.9575    0.0000 C    0  0  0  0  0  0  0  0  0  0  0  0
    1.0973    0.5175    0.0000 N    0  0  0  0  0  0  0  0  0  0  0  0
    1.8118    0.1050    0.0000 C    0  0  0  0  0  0  0  0  0  0  0  0
    1.8118   -0.7200    0.0000 N    0  0  0  0  0  0  0  0  0  0  0  0
    1.0973   -1.1325    0.0000 C    0  0  0  0  0  0  0  0  0  0  0  0
    2.5263    0.5175    0.0000 O    0  0  0  0  0  0  0  0  0  0  0  0
    1.0973    1.3425    0.0000 C    0  0  0  0  0  0  0  0  0  0  0  0
    0.3829   -2.3700    0.0000 C    0  0  0  0  0  0  0  0  0  0  0  0
    0.3829   -3.1950    0.0000 C    0  0  0  0  0  0  0  0  0  0  0  0
   -0.3316   -3.6075    0.0000 C    0  0  0  0  0  0  0  0  0  0  0  0
   -1.0461   -3.1950    0.0000 C    0  0  0  0  0  0  0  0  0  0  0  0
   -1.0461   -2.3700    0.0000 C    0  0  0  0  0  0  0  0  0  0  0  0
    0.3829    1.7550    0.0000 C    0  0  0  0  0  0  0  0  0  0  0  0
    0.3829    2.5800    0.0000 C    0  0  0  0  0  0  0  0  0  0  0  0
    1.0973    2.9925    0.0000 C    0  0  0  0  0  0  0  0  0  0  0  0
    1.8118    2.5800    0.0000 C    0  0  0  0  0  0  0  0  0  0  0  0
    1.8118    1.7550    0.0000 C    0  0  0  0  0  0  0  0  0  0  0  0
   -1.7605   -1.9575    0.0000 F    0  0  0  0  0  0  0  0  0  0  0  0
   -0.3316   -4.4325    0.0000 F    0  0  0  0  0  0  0  0  0  0  0  0
    2.5263    1.3425    0.0000 Cl   0  0  0  0  0  0  0  0  0  0  0  0
   -0.3316    1.3425    0.0000 Cl   0  0  0  0  0  0  0  0  0  0  0  0
   -2.4750    0.1050    0.0000 C    0  0  0  0  0  0  0  0  0  0  0  0
   -3.1895    0.5175    0.0000 C    0  0  0  0  0  0  0  0  0  0  0  0
   -3.1895    1.3425    0.0000 N    0  0  0  0  0  0  0  0  0  0  0  0
   -2.4750    1.7550    0.0000 C    0  0  0  0  0  0  0  0  0  0  0  0
   -1.7605    1.3425    0.0000 C    0  0  0  0  0  0  0  0  0  0  0  0
  1  2  2  0  0  0  0
  1  6  1  0  0  0  0
  1 12  1  0  0  0  0
  2  3  1  0  0  0  0
  2  8  1  0  0  0  0
  3  4  2  0  0  0  0
  4  5  1  0  0  0  0
  4  7  1  0  0  0  0
  5  6  2  0  0  0  0
  6  9  1  0  0  0  0
  7 29  1  0  0  0  0
  7 33  1  0  0  0  0
  8 15  2  0  0  0  0
  8 19  1  0  0  0  0
  9 10  1  0  0  0  0
  9 14  1  0  0  0  0
 10 11  1  0  0  0  0
 10 13  2  0  0  0  0
 11 12  1  0  0  0  0
 14 20  2  0  0  0  0
 14 24  1  0  0  0  0
 15 16  1  0  0  0  0
 16 17  2  0  0  0  0
 17 18  1  0  0  0  0
 17 26  1  0  0  0  0
 18 19  2  0  0  0  0
 19 25  1  0  0  0  0
 20 21  1  0  0  0  0
 20 28  1  0  0  0  0
 21 22  2  0  0  0  0
 22 23  1  0  0  0  0
 23 24  2  0  0  0  0
 24 27  1  0  0  0  0
 29 30  1  0  0  0  0
 30 31  1  0  0  0  0
 31 32  1  0  0  0  0
 32 33  1  0  0  0  0
M  END
> <DRUGBANK_ID>
DB02873

> <DRUG_GROUPS>
experimental

> <GENERIC_NAME>
1-(2,6-Dichlorophenyl)-5-(2,4-Difluorophenyl)-7-Piperazin-1-Yl-3,4-Dihydroquinazolin-2(1h)-One

> <CHEMICAL_FORMULA>
C24H20Cl2F2N4O

> <MOLECULAR_WEIGHT>
489.345

> <EXACT_MASS>
488.098223106

> <IUPAC_NAME>
1-(2,6-dichlorophenyl)-5-(2,4-difluorophenyl)-7-(piperazin-1-yl)-1,2,3,4-tetrahydroquinazolin-2-one

> <IUPAC_TRADITIONAL_NAME>
1-(2,6-dichlorophenyl)-5-(2,4-difluorophenyl)-7-(piperazin-1-yl)-3,4-dihydroquinazolin-2-one

> <INCHI_IDENTIFIER>
InChI=1S/C24H20Cl2F2N4O/c25-19-2-1-3-20(26)23(19)32-22-12-15(31-8-6-29-7-9-31)11-17(18(22)13-30-24(32)33)16-5-4-14(27)10-21(16)28/h1-5,10-12,29H,6-9,13H2,(H,30,33)

> <INCHI_KEY>
InChIKey=YAWZIQKDHQIHOS-UHFFFAOYSA-N

> <SMILES>
FC1=CC=C(C(F)=C1)C1=C2CNC(=O)N(C2=CC(=C1)N1CCNCC1)C1=C(Cl)C=CC=C1Cl

> <JCHEM_ACCEPTOR_COUNT>
3

> <JCHEM_DONOR_COUNT>
2

> <JCHEM_ACIDIC_PKA>
15.38

> <JCHEM_BASIC_PKA>
8.86

> <JCHEM_PHYSIOLOGICAL_CHARGE>
1

> <ALOGPS_LOGP>
3.93

> <JCHEM_LOGP>
5.09

> <ALOGPS_LOGS>
-4.9

> <JCHEM_POLARIZABILITY>
47.25

> <JCHEM_POLAR_SURFACE_AREA>
47.61

> <JCHEM_REFRACTIVITY>
126.31

> <JCHEM_ROTATABLE_BOND_COUNT>
3

> <ALOGPS_SOLUBILITY>
5.92e-03 g/l __ 

$$$$
