
  Mrv0541 02231216272D          

 51 55  0  0  1  0            999 V2000
    0.4281   -3.5916    0.0000 C    0  0  0  0  0  0  0  0  0  0  0  0
   -0.3789   -3.4201    0.0000 C    0  0  2  0  0  0  0  0  0  0  0  0
   -0.9920   -3.9721    0.0000 C    0  0  0  0  0  0  0  0  0  0  0  0
   -1.7065   -3.5596    0.0000 C    0  0  0  0  0  0  0  0  0  0  0  0
   -1.5350   -2.7527    0.0000 C    0  0  2  0  0  0  0  0  0  0  0  0
   -2.0870   -2.1396    0.0000 O    0  0  0  0  0  0  0  0  0  0  0  0
   -0.7145   -2.6664    0.0000 C    0  0  1  0  0  0  0  0  0  0  0  0
   -0.3020   -1.9520    0.0000 N    0  0  0  0  0  0  0  0  0  0  0  0
   -0.7145   -1.2375    0.0000 C    0  0  0  0  0  0  0  0  0  0  0  0
   -1.5395   -1.2375    0.0000 O    0  0  0  0  0  0  0  0  0  0  0  0
   -0.3020   -0.5230    0.0000 C    0  0  2  0  0  0  0  0  0  0  0  0
    0.5230   -0.5230    0.0000 C    0  0  0  0  0  0  0  0  0  0  0  0
    0.9355   -1.2375    0.0000 C    0  0  1  0  0  0  0  0  0  0  0  0
    0.5230   -1.9520    0.0000 O    0  0  0  0  0  0  0  0  0  0  0  0
    1.7605   -1.2375    0.0000 C    0  0  0  0  0  0  0  0  0  0  0  0
    2.1730   -0.5230    0.0000 N    0  0  0  0  0  0  0  0  0  0  0  0
    1.7605    0.1914    0.0000 C    0  0  0  0  0  0  0  0  0  0  0  0
    2.1730    0.9059    0.0000 C    0  0  0  0  0  0  0  0  0  0  0  0
    2.9980    0.9059    0.0000 N    0  0  0  0  0  0  0  0  0  0  0  0
    3.4105    0.1914    0.0000 C    0  0  0  0  0  0  0  0  0  0  0  0
    2.9980   -0.5230    0.0000 C    0  0  2  0  0  0  0  0  0  0  0  0
    3.4105   -1.2375    0.0000 C    0  0  0  0  0  0  0  0  0  0  0  0
    2.9980   -1.9520    0.0000 O    0  0  0  0  0  0  0  0  0  0  0  0
    4.2355   -1.2375    0.0000 N    0  0  0  0  0  0  0  0  0  0  0  0
    4.6480   -1.9520    0.0000 C    0  0  0  0  0  0  0  0  0  0  0  0
    3.9336   -2.3645    0.0000 C    0  0  0  0  0  0  0  0  0  0  0  0
    5.3625   -1.5395    0.0000 C    0  0  0  0  0  0  0  0  0  0  0  0
    5.0605   -2.6664    0.0000 C    0  0  0  0  0  0  0  0  0  0  0  0
    3.4105    1.6204    0.0000 C    0  0  0  0  0  0  0  0  0  0  0  0
    4.2355    1.6204    0.0000 O    0  0  0  0  0  0  0  0  0  0  0  0
    2.9980    2.3349    0.0000 C    0  0  0  0  0  0  0  0  0  0  0  0
    2.1730    2.3349    0.0000 C    0  0  0  0  0  0  0  0  0  0  0  0
    1.7605    3.0493    0.0000 N    0  0  0  0  0  0  0  0  0  0  0  0
    2.1730    3.7638    0.0000 C    0  0  0  0  0  0  0  0  0  0  0  0
    1.7605    4.4783    0.0000 N    0  0  0  0  0  0  0  0  0  0  0  0
    0.9355    4.4783    0.0000 C    0  0  0  0  0  0  0  0  0  0  0  0
    0.5230    5.1927    0.0000 C    0  0  0  0  0  0  0  0  0  0  0  0
    0.9355    5.9072    0.0000 N    0  0  0  0  0  0  0  0  0  0  0  0
    0.5230    6.6217    0.0000 C    0  0  0  0  0  0  0  0  0  0  0  0
    1.7605    5.9072    0.0000 C    0  0  0  0  0  0  0  0  0  0  0  0
    2.1730    5.1927    0.0000 C    0  0  0  0  0  0  0  0  0  0  0  0
    2.9980    3.7638    0.0000 C    0  0  0  0  0  0  0  0  0  0  0  0
    3.4105    4.4783    0.0000 Cl   0  0  0  0  0  0  0  0  0  0  0  0
    3.4105    3.0493    0.0000 N    0  0  0  0  0  0  0  0  0  0  0  0
   -0.7145    0.1914    0.0000 C    0  0  0  0  0  0  0  0  0  0  0  0
   -1.5395    0.1914    0.0000 C    0  0  0  0  0  0  0  0  0  0  0  0
   -1.9520   -0.5230    0.0000 C    0  0  0  0  0  0  0  0  0  0  0  0
   -2.7770   -0.5230    0.0000 C    0  0  0  0  0  0  0  0  0  0  0  0
   -3.1895    0.1914    0.0000 C    0  0  0  0  0  0  0  0  0  0  0  0
   -2.7770    0.9059    0.0000 C    0  0  0  0  0  0  0  0  0  0  0  0
   -1.9520    0.9059    0.0000 C    0  0  0  0  0  0  0  0  0  0  0  0
  2  1  1  6  0  0  0
  2  3  1  0  0  0  0
  3  4  1  0  0  0  0
  4  5  1  0  0  0  0
  5  6  1  6  0  0  0
  5  7  1  0  0  0  0
  2  7  1  0  0  0  0
  7  8  1  1  0  0  0
  8  9  1  0  0  0  0
  9 10  2  0  0  0  0
  9 11  1  0  0  0  0
 11 12  1  0  0  0  0
 12 13  1  0  0  0  0
 13 14  1  6  0  0  0
 13 15  1  0  0  0  0
 15 16  1  0  0  0  0
 16 17  1  0  0  0  0
 17 18  1  0  0  0  0
 18 19  1  0  0  0  0
 19 20  1  0  0  0  0
 20 21  1  0  0  0  0
 16 21  1  0  0  0  0
 21 22  1  6  0  0  0
 22 23  2  0  0  0  0
 22 24  1  0  0  0  0
 24 25  1  0  0  0  0
 25 26  1  0  0  0  0
 25 27  1  0  0  0  0
 25 28  1  0  0  0  0
 19 29  1  0  0  0  0
 29 30  2  0  0  0  0
 29 31  1  0  0  0  0
 31 32  2  0  0  0  0
 32 33  1  0  0  0  0
 33 34  2  0  0  0  0
 34 35  1  0  0  0  0
 35 36  1  0  0  0  0
 36 37  1  0  0  0  0
 37 38  1  0  0  0  0
 38 39  1  0  0  0  0
 38 40  1  0  0  0  0
 40 41  1  0  0  0  0
 35 41  1  0  0  0  0
 34 42  1  0  0  0  0
 42 43  1  0  0  0  0
 42 44  2  0  0  0  0
 31 44  1  0  0  0  0
 11 45  1  1  0  0  0
 45 46  1  0  0  0  0
 46 47  2  0  0  0  0
 47 48  1  0  0  0  0
 48 49  2  0  0  0  0
 49 50  1  0  0  0  0
 50 51  2  0  0  0  0
 46 51  1  0  0  0  0
M  END
> <DRUGBANK_ID>
DB02785

> <DRUG_GROUPS>
experimental

> <GENERIC_NAME>
N-[2(S)-Cyclopentyl-1(R)-Hydroxy-3(R)Methyl]-5-[(2(S)-Tertiary-Butylamino-Carbonyl)-4-(N1-(2)-(N-Methylpiperazinyl)-3-Chloro-Pyrazinyl-5-Carbonyl)-Piperazino]-4(S)-Hydroxy-2(R)-Phenylmethyl-Pentanamide

> <CHEMICAL_FORMULA>
C37H55ClN8O5

> <MOLECULAR_WEIGHT>
727.336

> <EXACT_MASS>
726.398394617

> <IUPAC_NAME>
(2R)-1-[(2R,4S)-4-benzyl-2-hydroxy-4-{[(1S,2S,5R)-2-hydroxy-5-methylcyclopentyl]carbamoyl}butyl]-N-tert-butyl-4-{[6-chloro-5-(4-methylpiperazin-1-yl)pyrazin-2-yl]carbonyl}piperazine-2-carboxamide

> <IUPAC_TRADITIONAL_NAME>
(2R)-1-[(2R,4S)-4-benzyl-2-hydroxy-4-{[(1S,2S,5R)-2-hydroxy-5-methylcyclopentyl]carbamoyl}butyl]-N-tert-butyl-4-{[6-chloro-5-(4-methylpiperazin-1-yl)pyrazin-2-yl]carbonyl}piperazine-2-carboxamide

> <INCHI_IDENTIFIER>
InChI=1S/C37H55ClN8O5/c1-24-11-12-30(48)31(24)41-34(49)26(19-25-9-7-6-8-10-25)20-27(47)22-45-17-18-46(23-29(45)35(50)42-37(2,3)4)36(51)28-21-39-33(32(38)40-28)44-15-13-43(5)14-16-44/h6-10,21,24,26-27,29-31,47-48H,11-20,22-23H2,1-5H3,(H,41,49)(H,42,50)/t24-,26+,27-,29-,30+,31+/m1/s1

> <INCHI_KEY>
InChIKey=SQZXWXXIPWXBCL-OJZNMFIDSA-N

> <SMILES>
C[C@@H]1CC[C@H](O)[C@H]1NC(=O)[C@H](C[C@@H](O)CN1CCN(C[C@@H]1C(=O)NC(C)(C)C)C(=O)C1=CN=C(N2CCN(C)CC2)C(Cl)=N1)CC1=CC=CC=C1

> <JCHEM_ACCEPTOR_COUNT>
10

> <JCHEM_DONOR_COUNT>
4

> <JCHEM_ACIDIC_PKA>
13.93

> <JCHEM_BASIC_PKA>
6.42

> <JCHEM_PHYSIOLOGICAL_CHARGE>
0

> <ALOGPS_LOGP>
2.61

> <JCHEM_LOGP>
2.16

> <ALOGPS_LOGS>
-3.8

> <JCHEM_POLARIZABILITY>
79.44

> <JCHEM_POLAR_SURFACE_AREA>
154.47

> <JCHEM_REFRACTIVITY>
199.04

> <JCHEM_ROTATABLE_BOND_COUNT>
12

> <ALOGPS_SOLUBILITY>
1.04e-01 g/l __ 

$$$$
