
  Mrv0541 02231216322D          

  9  8  0  0  1  0            999 V2000
    1.7605    1.8414    0.0000 C   0  0  0  0  0  0  0  0  0  0  0  0
    2.4750    1.4289    0.0000 S   0  0  0  0  0  0  0  0  0  0  0  0
    3.1895    1.8414    0.0000 C   0  0  0  0  0  0  0  0  0  0  0  0
    3.9039    1.4289    0.0000 C   0  0  0  0  0  0  0  0  0  0  0  0
    4.6184    1.8414    0.0000 C   0  0  1  0  0  0  0  0  0  0  0  0
    4.6184    2.6664    0.0000 N   0  0  0  0  0  0  0  0  0  0  0  0
    5.3329    1.4289    0.0000 C   0  0  0  0  0  0  0  0  0  0  0  0
    6.0474    1.8414    0.0000 O   0  0  0  0  0  0  0  0  0  0  0  0
    5.3329    0.6039    0.0000 O   0  0  0  0  0  0  0  0  0  0  0  0
  1  2  1  0  0  0  0
  2  3  1  0  0  0  0
  3  4  1  0  0  0  0
  4  5  1  0  0  0  0
  5  6  1  1  0  0  0
  5  7  1  0  0  0  0
  7  8  1  0  0  0  0
  7  9  2  0  0  0  0
M  END
> <DRUGBANK_ID>
DB02893

> <DRUG_GROUPS>
experimental

> <GENERIC_NAME>
D-Methionine

> <CHEMICAL_FORMULA>
C5H11NO2S

> <MOLECULAR_WEIGHT>
149.211

> <EXACT_MASS>
149.051049291

> <IUPAC_NAME>
(2R)-2-amino-4-(methylsulfanyl)butanoic acid

> <IUPAC_TRADITIONAL_NAME>
D-methionine

> <INCHI_IDENTIFIER>
InChI=1S/C5H11NO2S/c1-9-3-2-4(6)5(7)8/h4H,2-3,6H2,1H3,(H,7,8)/t4-/m1/s1

> <INCHI_KEY>
InChIKey=FFEARJCKVFRZRR-SCSAIBSYSA-N

> <SMILES>
CSCC[C@@H](N)C(O)=O

> <JCHEM_ACCEPTOR_COUNT>
3

> <JCHEM_DONOR_COUNT>
2

> <JCHEM_ACIDIC_PKA>
2.53

> <JCHEM_BASIC_PKA>
9.5

> <JCHEM_PHYSIOLOGICAL_CHARGE>
0

> <ALOGPS_LOGP>
-1.9

> <JCHEM_LOGP>
-2.2

> <ALOGPS_LOGS>
-0.8

> <JCHEM_POLARIZABILITY>
15.46

> <JCHEM_POLAR_SURFACE_AREA>
63.32

> <JCHEM_REFRACTIVITY>
37.59

> <JCHEM_ROTATABLE_BOND_COUNT>
4

> <ALOGPS_SOLUBILITY>
2.39e+01 g/l __ 

$$$$
