
  Mrv0541 02231216022D          

  6  5  0  0  1  0            999 V2000
    2.4750   -1.4289    0.0000 C   0  0  0  0  0  0  0  0  0  0  0  0
    2.0625   -0.7145    0.0000 C   0  0  2  0  0  0  0  0  0  0  0  0
    2.4750    0.0000    0.0000 O   0  0  0  0  0  0  0  0  0  0  0  0
    1.2375   -0.7145    0.0000 C   0  0  0  0  0  0  0  0  0  0  0  0
    0.8250    0.0000    0.0000 C   0  0  0  0  0  0  0  0  0  0  0  0
    0.0000    0.0000    0.0000 O   0  0  0  0  0  0  0  0  0  0  0  0
  1  2  1  0  0  0  0
  2  3  1  1  0  0  0
  2  4  1  0  0  0  0
  4  5  1  0  0  0  0
  5  6  1  0  0  0  0
M  END
> <DRUGBANK_ID>
DB02202

> <DRUG_GROUPS>
experimental

> <GENERIC_NAME>
1,3-Butanediol

> <CHEMICAL_FORMULA>
C4H10O2

> <MOLECULAR_WEIGHT>
90.121

> <EXACT_MASS>
90.068079564

> <IUPAC_NAME>
(3S)-butane-1,3-diol

> <IUPAC_TRADITIONAL_NAME>
1,3-butanediol

> <INCHI_IDENTIFIER>
InChI=1S/C4H10O2/c1-4(6)2-3-5/h4-6H,2-3H2,1H3/t4-/m0/s1

> <INCHI_KEY>
InChIKey=PUPZLCDOIYMWBV-BYPYZUCNSA-N

> <SMILES>
C[C@H](O)CCO

> <JCHEM_ACCEPTOR_COUNT>
2

> <JCHEM_DONOR_COUNT>
2

> <JCHEM_ACIDIC_PKA>
15.41

> <JCHEM_BASIC_PKA>
-2.4

> <JCHEM_PHYSIOLOGICAL_CHARGE>
0

> <ALOGPS_LOGP>
-0.59

> <JCHEM_LOGP>
-0.73

> <ALOGPS_LOGS>
0.92

> <JCHEM_POLARIZABILITY>
9.97

> <JCHEM_POLAR_SURFACE_AREA>
40.46

> <JCHEM_REFRACTIVITY>
23.84

> <JCHEM_ROTATABLE_BOND_COUNT>
2

> <ALOGPS_SOLUBILITY>
7.42e+02 g/l __ 

$$$$
