
  Mrv0541 02231216352D          

 17 16  0  0  1  0            999 V2000
    9.9513    4.0954    0.0000 N   0  0  0  0  0  0  0  0  0  0  0  0
    9.9513    3.2704    0.0000 C   0  0  1  0  0  0  0  0  0  0  0  0
    9.2368    2.8579    0.0000 C   0  0  0  0  0  0  0  0  0  0  0  0
    8.5224    3.2704    0.0000 C   0  0  0  0  0  0  0  0  0  0  0  0
    7.8079    2.8579    0.0000 C   0  0  0  0  0  0  0  0  0  0  0  0
    7.0934    3.2704    0.0000 N   0  0  0  0  0  0  0  0  0  0  0  0
    6.3789    2.8579    0.0000 P   0  0  2  0  0  0  0  0  0  0  0  0
    6.7914    2.1434    0.0000 N   0  0  0  0  0  0  0  0  0  0  0  0
    5.9664    3.5724    0.0000 O   0  0  0  0  0  0  0  0  0  0  0  0
    5.6645    2.4454    0.0000 N   0  0  0  0  0  0  0  0  0  0  0  0
    4.9500    2.8579    0.0000 S   0  0  0  0  0  0  0  0  0  0  0  0
    4.2355    3.2704    0.0000 O   0  0  0  0  0  0  0  0  0  0  0  0
    4.5375    2.1434    0.0000 O   0  0  0  0  0  0  0  0  0  0  0  0
    5.3625    3.5724    0.0000 O   0  0  0  0  0  0  0  0  0  0  0  0
   10.6658    2.8579    0.0000 C   0  0  0  0  0  0  0  0  0  0  0  0
   11.3802    3.2704    0.0000 O   0  0  0  0  0  0  0  0  0  0  0  0
   10.6658    2.0329    0.0000 O   0  0  0  0  0  0  0  0  0  0  0  0
  2  1  1  6  0  0  0
  2  3  1  0  0  0  0
  3  4  1  0  0  0  0
  4  5  1  0  0  0  0
  5  6  1  0  0  0  0
  7  6  1  1  0  0  0
  7  8  1  6  0  0  0
  7  9  2  0  0  0  0
  7 10  1  0  0  0  0
 10 11  1  0  0  0  0
 11 12  1  0  0  0  0
 11 13  2  0  0  0  0
 11 14  2  0  0  0  0
  2 15  1  0  0  0  0
 15 16  1  0  0  0  0
 15 17  2  0  0  0  0
M  END
> <DRUGBANK_ID>
DB02965

> <DRUG_GROUPS>
experimental

> <GENERIC_NAME>
Ndelta-(N'-Sulphodiaminophosphinyl)-L-Ornithine

> <CHEMICAL_FORMULA>
C5H15N4O6PS

> <MOLECULAR_WEIGHT>
290.235

> <EXACT_MASS>
290.044991434

> <IUPAC_NAME>
(2S)-2-amino-5-{[(S)-amino(sulfoamino)phosphoryl]amino}pentanoic acid

> <IUPAC_TRADITIONAL_NAME>
(2S)-2-amino-5-{[(S)-amino(sulfoamino)phosphoryl]amino}pentanoic acid

> <INCHI_IDENTIFIER>
InChI=1S/C5H15N4O6PS/c6-4(5(10)11)2-1-3-8-16(7,12)9-17(13,14)15/h4H,1-3,6H2,(H,10,11)(H,13,14,15)(H4,7,8,9,12)/t4-,16-/m0/s1

> <INCHI_KEY>
InChIKey=MDGVOXPIIICZEK-LQMFNZFOSA-N

> <SMILES>
N[C@@H](CCCN[P@](N)(=O)NS(O)(=O)=O)C(O)=O

> <JCHEM_ACCEPTOR_COUNT>
9

> <JCHEM_DONOR_COUNT>
6

> <JCHEM_ACIDIC_PKA>
-1

> <JCHEM_BASIC_PKA>
9.33

> <JCHEM_PHYSIOLOGICAL_CHARGE>
-1

> <ALOGPS_LOGP>
-1.8

> <JCHEM_LOGP>
-4.5

> <ALOGPS_LOGS>
-1.7

> <JCHEM_POLARIZABILITY>
24.74

> <JCHEM_POLAR_SURFACE_AREA>
184.84

> <JCHEM_REFRACTIVITY>
57.85

> <JCHEM_ROTATABLE_BOND_COUNT>
7

> <ALOGPS_SOLUBILITY>
5.55e+00 g/l __ 

$$$$
