
  Mrv0541 02231216332D          

 52 54  0  0  1  0            999 V2000
  -12.0602  -11.7985    0.0000 C   0  0  0  0  0  0  0  0  0  0  0  0
  -11.3208  -11.4326    0.0000 C   0  0  0  0  0  0  0  0  0  0  0  0
  -10.6342  -11.8900    0.0000 C   0  0  0  0  0  0  0  0  0  0  0  0
  -10.6870  -12.7133    0.0000 O   0  0  0  0  0  0  0  0  0  0  0  0
   -9.8948  -11.5241    0.0000 S   0  0  0  0  0  0  0  0  0  0  0  0
   -9.2082  -11.9814    0.0000 C   0  0  0  0  0  0  0  0  0  0  0  0
   -8.4688  -11.6155    0.0000 C   0  0  0  0  0  0  0  0  0  0  0  0
   -7.7822  -12.0729    0.0000 N   0  0  0  0  0  0  0  0  0  0  0  0
   -7.0428  -11.7070    0.0000 C   0  0  0  0  0  0  0  0  0  0  0  0
   -6.9900  -10.8837    0.0000 O   0  0  0  0  0  0  0  0  0  0  0  0
   -6.3562  -12.1644    0.0000 C   0  0  0  0  0  0  0  0  0  0  0  0
   -5.6168  -11.7985    0.0000 C   0  0  0  0  0  0  0  0  0  0  0  0
   -4.9302  -12.2559    0.0000 N   0  0  0  0  0  0  0  0  0  0  0  0
   -4.1908  -11.8900    0.0000 C   0  0  0  0  0  0  0  0  0  0  0  0
   -4.1379  -11.0667    0.0000 O   0  0  0  0  0  0  0  0  0  0  0  0
   -3.5042  -12.3474    0.0000 C   0  0  1  0  0  0  0  0  0  0  0  0
   -3.5570  -13.1707    0.0000 O   0  0  0  0  0  0  0  0  0  0  0  0
   -2.7647  -11.9814    0.0000 C   0  0  0  0  0  0  0  0  0  0  0  0
   -2.3988  -12.7209    0.0000 C   0  0  0  0  0  0  0  0  0  0  0  0
   -3.1307  -11.2420    0.0000 C   0  0  0  0  0  0  0  0  0  0  0  0
   -2.0253  -11.6155    0.0000 C   0  0  0  0  0  0  0  0  0  0  0  0
   -1.3387  -12.0729    0.0000 O   0  0  0  0  0  0  0  0  0  0  0  0
   -0.5993  -11.7070    0.0000 P   0  0  2  0  0  0  0  0  0  0  0  0
   -0.2334  -12.4464    0.0000 O   0  0  0  0  0  0  0  0  0  0  0  0
   -0.9652  -10.9676    0.0000 O   0  0  0  0  0  0  0  0  0  0  0  0
    0.1401  -11.3411    0.0000 O   0  0  0  0  0  0  0  0  0  0  0  0
    0.8267  -11.7985    0.0000 P   0  0  1  0  0  0  0  0  0  0  0  0
    0.3693  -12.4851    0.0000 O   0  0  0  0  0  0  0  0  0  0  0  0
    1.2841  -11.1119    0.0000 O   0  0  0  0  0  0  0  0  0  0  0  0
    1.5133  -12.2559    0.0000 O   0  0  0  0  0  0  0  0  0  0  0  0
    2.2527  -11.8900    0.0000 C   0  0  0  0  0  0  0  0  0  0  0  0
    2.9393  -12.3474    0.0000 C   0  0  2  0  0  0  0  0  0  0  0  0
    3.7129  -12.0607    0.0000 O   0  0  0  0  0  0  0  0  0  0  0  0
    4.2246  -12.7079    0.0000 C   0  0  2  0  0  0  0  0  0  0  0  0
    3.7672  -13.3945    0.0000 C   0  0  2  0  0  0  0  0  0  0  0  0
    4.0538  -14.1681    0.0000 O   0  0  0  0  0  0  0  0  0  0  0  0
    2.9728  -13.1717    0.0000 C   0  0  1  0  0  0  0  0  0  0  0  0
    2.3257  -13.6833    0.0000 O   0  0  0  0  0  0  0  0  0  0  0  0
    1.5590  -13.3787    0.0000 P   0  0  0  0  0  0  0  0  0  0  0  0
    1.8636  -12.6120    0.0000 O   0  0  0  0  0  0  0  0  0  0  0  0
    1.2543  -14.1454    0.0000 O   0  0  0  0  0  0  0  0  0  0  0  0
    0.7923  -13.0740    0.0000 O   0  0  0  0  0  0  0  0  0  0  0  0
    5.0489  -12.6744    0.0000 N   0  3  0  0  0  0  0  0  0  0  0  0
    5.5063  -11.9878    0.0000 C   0  0  0  0  0  0  0  0  0  0  0  0
    5.3021  -11.1885    0.0000 N   0  0  0  0  0  0  0  0  0  0  0  0
    5.8922  -10.6120    0.0000 C   0  0  0  0  0  0  0  0  0  0  0  0
    6.6866  -10.8348    0.0000 N   0  0  0  0  0  0  0  0  0  0  0  0
    6.8908  -11.6341    0.0000 C   0  0  0  0  0  0  0  0  0  0  0  0
    7.6851  -11.8570    0.0000 N   0  0  0  0  0  0  0  0  0  0  0  0
    6.3006  -12.2106    0.0000 C   0  0  0  0  0  0  0  0  0  0  0  0
    6.3341  -13.0349    0.0000 N   0  0  0  0  0  0  0  0  0  0  0  0
    5.5605  -13.3216    0.0000 C   0  0  0  0  0  0  0  0  0  0  0  0
  1  2  1  0  0  0  0
  2  3  1  0  0  0  0
  3  4  2  0  0  0  0
  3  5  1  0  0  0  0
  5  6  1  0  0  0  0
  6  7  1  0  0  0  0
  7  8  1  0  0  0  0
  8  9  1  0  0  0  0
  9 10  2  0  0  0  0
  9 11  1  0  0  0  0
 11 12  1  0  0  0  0
 12 13  1  0  0  0  0
 13 14  1  0  0  0  0
 14 15  2  0  0  0  0
 14 16  1  0  0  0  0
 16 17  1  6  0  0  0
 16 18  1  0  0  0  0
 18 19  1  0  0  0  0
 18 20  1  0  0  0  0
 18 21  1  0  0  0  0
 21 22  1  0  0  0  0
 23 22  1  6  0  0  0
 23 24  1  1  0  0  0
 23 25  2  0  0  0  0
 23 26  1  0  0  0  0
 27 26  1  1  0  0  0
 27 28  1  6  0  0  0
 27 29  2  0  0  0  0
 27 30  1  0  0  0  0
 30 31  1  0  0  0  0
 32 31  1  6  0  0  0
 32 33  1  0  0  0  0
 33 34  1  0  0  0  0
 34 35  1  0  0  0  0
 35 36  1  6  0  0  0
 35 37  1  0  0  0  0
 32 37  1  0  0  0  0
 37 38  1  1  0  0  0
 38 39  1  0  0  0  0
 39 40  1  0  0  0  0
 39 41  1  0  0  0  0
 39 42  2  0  0  0  0
 34 43  1  1  0  0  0
 43 44  2  0  0  0  0
 44 45  4  0  0  0  0
 45 46  4  0  0  0  0
 46 47  4  0  0  0  0
 47 48  4  0  0  0  0
 48 49  1  0  0  0  0
 48 50  4  0  0  0  0
 44 50  4  0  0  0  0
 50 51  1  0  0  0  0
 51 52  2  0  0  0  0
 43 52  1  0  0  0  0
M  END
> <DRUGBANK_ID>
DB02912

> <DRUG_GROUPS>
experimental

> <GENERIC_NAME>
Propionyl Coenzyme A

> <CHEMICAL_FORMULA>
C24H40N7O17P3S

> <MOLECULAR_WEIGHT>
823.597

> <EXACT_MASS>
823.141423115

> <IUPAC_NAME>
6-amino-9-[(2R,3R,4R,5S)-3-hydroxy-5-({[hydroxy({hydroxy[(3S)-3-hydroxy-2,2-dimethyl-3-[(2-{[2-(propanoylsulfanyl)ethyl]carbamoyl}ethyl)carbamoyl]propoxy]phosphoryl}oxy)phosphoryl]oxy}methyl)-4-(phosphonooxy)oxolan-2-yl]-1,3,7,9$l^{5}-purin-9-ylium

> <IUPAC_TRADITIONAL_NAME>
6-amino-9-[(2R,3R,4R,5S)-3-hydroxy-5-[({hydroxy[hydroxy(3S)-3-hydroxy-2,2-dimethyl-3-[(2-{[2-(propanoylsulfanyl)ethyl]carbamoyl}ethyl)carbamoyl]propoxyphosphoryl]oxyphosphoryl}oxy)methyl]-4-(phosphonooxy)oxolan-2-yl]-1,3,7,9$l^{5}-purin-9-ylium

> <INCHI_IDENTIFIER>
InChI=1S/C24H39N7O17P3S/c1-4-15(33)52-8-7-26-14(32)5-6-27-22(36)19(35)24(2,3)10-45-51(42,43)48-50(40,41)44-9-13-18(47-49(37,38)39)17(34)23(46-13)31-12-30-16-20(25)28-11-29-21(16)31/h11-13,17-19,23,34-35H,4-10H2,1-3H3,(H7-,25,26,27,28,32,36,37,38,39,40,41,42,43)/p+1/t13-,17+,18-,19+,23+/m0/s1

> <INCHI_KEY>
InChIKey=LWTHRDYFKLLFHX-ZAOFPIILSA-O

> <SMILES>
CCC(=O)SCCNC(=O)CCNC(=O)[C@@H](O)C(C)(C)CO[P@](O)(=O)O[P@@](O)(=O)OC[C@@H]1O[C@H]([C@H](O)[C@H]1OP(O)(O)=O)[N+]1=c2ncnc(N)c2N=C1

> <JCHEM_ACCEPTOR_COUNT>
17

> <JCHEM_DONOR_COUNT>
9

> <JCHEM_ACIDIC_PKA>
0.71

> <JCHEM_BASIC_PKA>
-3.8

> <JCHEM_PHYSIOLOGICAL_CHARGE>
-3

> <ALOGPS_LOGP>
-0.08

> <JCHEM_LOGP>
-6

> <ALOGPS_LOGS>
-2.1

> <JCHEM_POLARIZABILITY>
73.41

> <JCHEM_POLAR_SURFACE_AREA>
361.18

> <JCHEM_REFRACTIVITY>
190.18

> <JCHEM_ROTATABLE_BOND_COUNT>
21

> <ALOGPS_SOLUBILITY>
7.22e+00 g/l __ 

$$$$
