OES
  Mrv0541 02231216112D          

 13 12  0  0  0  0            999 V2000
   -3.5725   -0.1879    0.0000 C   0  0  0  0  0  0  0  0  0  0  0  0
   -2.8580    0.2246    0.0000 C   0  0  0  0  0  0  0  0  0  0  0  0
   -2.1436   -0.1879    0.0000 C   0  0  0  0  0  0  0  0  0  0  0  0
   -1.4291    0.2246    0.0000 C   0  0  0  0  0  0  0  0  0  0  0  0
   -0.7146   -0.1879    0.0000 C   0  0  0  0  0  0  0  0  0  0  0  0
   -0.0001    0.2246    0.0000 C   0  0  0  0  0  0  0  0  0  0  0  0
    0.7143   -0.1879    0.0000 C   0  0  0  0  0  0  0  0  0  0  0  0
    1.4288    0.2246    0.0000 C   0  0  0  0  0  0  0  0  0  0  0  0
    2.1433   -0.1879    0.0000 S   0  0  2  0  0  0  0  0  0  0  0  0
    2.8577    0.2246    0.0000 C   0  0  0  0  0  0  0  0  0  0  0  0
    3.5722   -0.1879    0.0000 C   0  0  0  0  0  0  0  0  0  0  0  0
    2.1433   -1.0129    0.0000 O   0  0  0  0  0  0  0  0  0  0  0  0
    4.2867    0.2246    0.0000 O   0  0  0  0  0  0  0  0  0  0  0  0
  1  2  1  0  0  0  0
  2  3  1  0  0  0  0
  3  4  1  0  0  0  0
  4  5  1  0  0  0  0
  5  6  1  0  0  0  0
  6  7  1  0  0  0  0
  7  8  1  0  0  0  0
  8  9  1  0  0  0  0
  9 10  1  6  0  0  0
  9 12  2  0  0  0  0
 10 11  1  0  0  0  0
 11 13  1  0  0  0  0
M  END
> <DRUGBANK_ID>
DB02415

> <DRUG_GROUPS>
experimental

> <GENERIC_NAME>
N-Octyl-2-Hydroxyethyl Sulfoxide

> <CHEMICAL_FORMULA>
C10H22O2S

> <MOLECULAR_WEIGHT>
206.345

> <EXACT_MASS>
206.134050638

> <IUPAC_NAME>
2-[(R)-octane-1-sulfinyl]ethan-1-ol

> <IUPAC_TRADITIONAL_NAME>
2-[(R)-octane-1-sulfinyl]ethanol

> <INCHI_IDENTIFIER>
InChI=1S/C10H22O2S/c1-2-3-4-5-6-7-9-13(12)10-8-11/h11H,2-10H2,1H3/t13-/m1/s1

> <INCHI_KEY>
InChIKey=IRJUEMKMQDEOTQ-CYBMUJFWSA-N

> <SMILES>
CCCCCCCC[S@@](=O)CCO

> <JCHEM_ACCEPTOR_COUNT>
2

> <JCHEM_DONOR_COUNT>
1

> <JCHEM_ACIDIC_PKA>
15.18

> <JCHEM_BASIC_PKA>
-2.7

> <JCHEM_PHYSIOLOGICAL_CHARGE>
0

> <ALOGPS_LOGP>
2.25

> <JCHEM_LOGP>
1.31

> <ALOGPS_LOGS>
-1.9

> <JCHEM_POLARIZABILITY>
25.55

> <JCHEM_POLAR_SURFACE_AREA>
37.3

> <JCHEM_REFRACTIVITY>
59.35

> <JCHEM_ROTATABLE_BOND_COUNT>
9

> <ALOGPS_SOLUBILITY>
2.30e+00 g/l __ 

$$$$
