
  Mrv0541 02231216282D          

 52 55  0  0  1  0            999 V2000
   -3.7086    4.7209    0.0000 N   0  0  0  0  0  0  0  0  0  0  0  0
   -3.0801    4.1865    0.0000 C   0  0  0  0  0  0  0  0  0  0  0  0
   -2.3031    4.4637    0.0000 N   0  0  0  0  0  0  0  0  0  0  0  0
   -1.6745    3.9293    0.0000 C   0  0  0  0  0  0  0  0  0  0  0  0
   -0.8975    4.2064    0.0000 O   0  0  0  0  0  0  0  0  0  0  0  0
   -1.8230    3.1178    0.0000 C   0  0  0  0  0  0  0  0  0  0  0  0
   -1.1945    2.5834    0.0000 C   0  0  0  0  0  0  0  0  0  0  0  0
   -1.3430    1.7719    0.0000 C   0  0  0  0  0  0  0  0  0  0  0  0
   -0.7145    1.2375    0.0000 C   0  0  0  0  0  0  0  0  0  0  0  0
   -0.8630    0.4260    0.0000 C   0  0  1  0  0  0  0  0  0  0  0  0
   -1.6745    0.5745    0.0000 O   0  0  0  0  0  0  0  0  0  0  0  0
   -0.0515    0.2775    0.0000 C   0  0  0  0  0  0  0  0  0  0  0  0
    0.4829    0.9060    0.0000 N   0  0  0  0  0  0  0  0  0  0  0  0
    1.2944    0.7575    0.0000 C   0  0  0  0  0  0  0  0  0  0  0  0
    1.8288    1.3860    0.0000 C   0  0  0  0  0  0  0  0  0  0  0  0
    1.5517    2.1631    0.0000 O   0  0  0  0  0  0  0  0  0  0  0  0
    2.6403    1.2375    0.0000 N   0  0  0  0  0  0  0  0  0  0  0  0
    3.1747    1.8660    0.0000 C   0  0  2  0  0  0  0  0  0  0  0  0
    2.9803    2.6678    0.0000 O   0  0  0  0  0  0  0  0  0  0  0  0
    3.6828    3.1005    0.0000 C   0  0  1  0  0  0  0  0  0  0  0  0
    3.7457    3.9231    0.0000 C   0  0  0  0  0  0  0  0  0  0  0  0
    4.4895    4.2799    0.0000 O   0  0  0  0  0  0  0  0  0  0  0  0
    4.5524    5.1025    0.0000 P   0  0  0  0  0  0  0  0  0  0  0  0
    4.6152    5.9251    0.0000 O   0  0  0  0  0  0  0  0  0  0  0  0
    3.7298    5.1654    0.0000 O   0  0  0  0  0  0  0  0  0  0  0  0
    5.3750    5.0396    0.0000 O   0  0  0  0  0  0  0  0  0  0  0  0
    4.3113    2.5661    0.0000 C   0  0  2  0  0  0  0  0  0  0  0  0
    5.1131    2.7605    0.0000 O   0  0  0  0  0  0  0  0  0  0  0  0
    3.9973    1.8032    0.0000 C   0  0  1  0  0  0  0  0  0  0  0  0
    4.4300    1.1007    0.0000 O   0  0  0  0  0  0  0  0  0  0  0  0
   -1.0115   -0.3855    0.0000 C   0  0  0  0  0  0  0  0  0  0  0  0
   -0.3830   -0.9199    0.0000 C   0  0  0  0  0  0  0  0  0  0  0  0
   -0.5315   -1.7314    0.0000 C   0  0  0  0  0  0  0  0  0  0  0  0
   -1.3085   -2.0086    0.0000 C   0  0  0  0  0  0  0  0  0  0  0  0
   -1.9371   -1.4742    0.0000 C   0  0  0  0  0  0  0  0  0  0  0  0
   -1.7886   -0.6627    0.0000 C   0  0  0  0  0  0  0  0  0  0  0  0
   -1.4571   -2.8201    0.0000 C   0  0  0  0  0  0  0  0  0  0  0  0
   -0.8285   -3.3545    0.0000 O   0  0  0  0  0  0  0  0  0  0  0  0
   -2.2341   -3.0972    0.0000 N   0  0  0  0  0  0  0  0  0  0  0  0
   -2.3826   -3.9088    0.0000 C   0  0  2  0  0  0  0  0  0  0  0  0
   -3.1597   -4.1859    0.0000 C   0  0  0  0  0  0  0  0  0  0  0  0
   -3.3082   -4.9974    0.0000 C   0  0  0  0  0  0  0  0  0  0  0  0
   -4.0853   -5.2746    0.0000 C   0  0  0  0  0  0  0  0  0  0  0  0
   -4.2338   -6.0861    0.0000 O   0  0  0  0  0  0  0  0  0  0  0  0
   -4.7138   -4.7402    0.0000 O   0  0  0  0  0  0  0  0  0  0  0  0
   -1.7541   -4.4432    0.0000 C   0  0  0  0  0  0  0  0  0  0  0  0
   -1.9026   -5.2547    0.0000 O   0  0  0  0  0  0  0  0  0  0  0  0
   -0.9770   -4.1660    0.0000 O   0  0  0  0  0  0  0  0  0  0  0  0
   -2.1201    1.4947    0.0000 C   0  0  0  0  0  0  0  0  0  0  0  0
   -2.7486    2.0291    0.0000 C   0  0  0  0  0  0  0  0  0  0  0  0
   -2.6001    2.8406    0.0000 C   0  0  0  0  0  0  0  0  0  0  0  0
   -3.2286    3.3750    0.0000 N   0  0  0  0  0  0  0  0  0  0  0  0
  1  2  1  0  0  0  0
  2  3  2  0  0  0  0
  3  4  1  0  0  0  0
  4  5  1  0  0  0  0
  4  6  2  0  0  0  0
  6  7  1  0  0  0  0
  7  8  2  0  0  0  0
  8  9  1  0  0  0  0
  9 10  1  0  0  0  0
 10 11  1  6  0  0  0
 10 12  1  0  0  0  0
 12 13  1  0  0  0  0
 13 14  1  0  0  0  0
 14 15  1  0  0  0  0
 15 16  2  0  0  0  0
 15 17  1  0  0  0  0
 18 17  1  6  0  0  0
 18 19  1  0  0  0  0
 19 20  1  0  0  0  0
 20 21  1  1  0  0  0
 21 22  1  0  0  0  0
 22 23  1  0  0  0  0
 23 24  1  0  0  0  0
 23 25  1  0  0  0  0
 23 26  2  0  0  0  0
 20 27  1  0  0  0  0
 27 28  1  6  0  0  0
 27 29  1  0  0  0  0
 18 29  1  0  0  0  0
 29 30  1  1  0  0  0
 10 31  1  1  0  0  0
 31 32  2  0  0  0  0
 32 33  1  0  0  0  0
 33 34  2  0  0  0  0
 34 35  1  0  0  0  0
 35 36  2  0  0  0  0
 31 36  1  0  0  0  0
 34 37  1  0  0  0  0
 37 38  2  0  0  0  0
 37 39  1  0  0  0  0
 40 39  1  1  0  0  0
 40 41  1  0  0  0  0
 41 42  1  0  0  0  0
 42 43  1  0  0  0  0
 43 44  1  0  0  0  0
 43 45  2  0  0  0  0
 40 46  1  0  0  0  0
 46 47  1  0  0  0  0
 46 48  2  0  0  0  0
  8 49  1  0  0  0  0
 49 50  2  0  0  0  0
 50 51  1  0  0  0  0
  6 51  1  0  0  0  0
 51 52  2  0  0  0  0
  2 52  1  0  0  0  0
M  END
> <DRUGBANK_ID>
DB02794

> <DRUG_GROUPS>
experimental

> <GENERIC_NAME>
N-[5'-O-Phosphono-Ribofuranosyl]-2-[2-Hydroxy-2-[4-[Glutamic Acid]-N-Carbonylphenyl]-3-[2-Amino-4-Hydroxy-Quinazolin-6-Yl]-Propanylamino]-Acetamide

> <CHEMICAL_FORMULA>
C30H37N6O15P

> <MOLECULAR_WEIGHT>
752.6197

> <EXACT_MASS>
752.205451056

> <IUPAC_NAME>
(2R)-2-({4-[(2S)-1-(2-amino-4-hydroxyquinazolin-6-yl)-3-[({[(2R,3R,4R,5S)-3,4-dihydroxy-5-[(phosphonooxy)methyl]oxolan-2-yl]carbamoyl}methyl)amino]-2-hydroxypropan-2-yl]phenyl}formamido)pentanedioic acid

> <IUPAC_TRADITIONAL_NAME>
(2R)-2-({4-[(2S)-1-(2-amino-4-hydroxyquinazolin-6-yl)-3-[({[(2R,3R,4R,5S)-3,4-dihydroxy-5-[(phosphonooxy)methyl]oxolan-2-yl]carbamoyl}methyl)amino]-2-hydroxypropan-2-yl]phenyl}formamido)pentanedioic acid

> <INCHI_IDENTIFIER>
InChI=1S/C30H37N6O15P/c31-29-34-18-6-1-14(9-17(18)26(43)36-29)10-30(46,16-4-2-15(3-5-16)25(42)33-19(28(44)45)7-8-22(38)39)13-32-11-21(37)35-27-24(41)23(40)20(51-27)12-50-52(47,48)49/h1-6,9,19-20,23-24,27,32,40-41,46H,7-8,10-13H2,(H,33,42)(H,35,37)(H,38,39)(H,44,45)(H2,47,48,49)(H3,31,34,36,43)/t19-,20+,23+,24-,27-,30-/m1/s1

> <INCHI_KEY>
InChIKey=QZUCAWXKEZPFBV-RCQHZQLASA-N

> <SMILES>
NC1=NC(O)=C2C=C(C[C@@](O)(CNCC(=O)N[C@@H]3O[C@@H](COP(O)(O)=O)[C@H](O)[C@H]3O)C3=CC=C(C=C3)C(=O)N[C@H](CCC(O)=O)C(O)=O)C=CC2=N1

> <JCHEM_ACCEPTOR_COUNT>
18

> <JCHEM_DONOR_COUNT>
12

> <JCHEM_ACIDIC_PKA>
1.1

> <JCHEM_BASIC_PKA>
8.16

> <JCHEM_PHYSIOLOGICAL_CHARGE>
-3

> <ALOGPS_LOGP>
-0.9

> <JCHEM_LOGP>
-3.3

> <ALOGPS_LOGS>
-4.2

> <JCHEM_POLARIZABILITY>
70.71

> <JCHEM_POLAR_SURFACE_AREA>
353.54

> <JCHEM_REFRACTIVITY>
174.93

> <JCHEM_ROTATABLE_BOND_COUNT>
17

> <ALOGPS_SOLUBILITY>
5.28e-02 g/l __ 

$$$$
