
  Mrv0541 02231216272D          

 91 99  0  0  1  0            999 V2000
    3.4879   -1.3461    0.0000 C    0  0  0  0  0  0  0  0  0  0  0  0
    2.6758   -1.4126    0.0000 N    0  0  0  0  0  0  0  0  0  0  0  0
    2.3275   -2.1492    0.0000 C    0  0  2  0  0  0  0  0  0  0  0  0
    2.7912   -2.8191    0.0000 C    0  0  0  0  0  0  0  0  0  0  0  0
    3.6033   -2.7526    0.0000 C    0  0  0  0  0  0  0  0  0  0  0  0
    4.0670   -3.4226    0.0000 C    0  0  0  0  0  0  0  0  0  0  0  0
    3.9516   -2.0160    0.0000 C    0  0  0  0  0  0  0  0  0  0  0  0
    1.5154   -2.2158    0.0000 C    0  0  0  0  0  0  0  0  0  0  0  0
    1.1670   -2.9524    0.0000 O    0  0  0  0  0  0  0  0  0  0  0  0
    1.0517   -1.5458    0.0000 N    0  0  0  0  0  0  0  0  0  0  0  0
    1.4001   -0.8092    0.0000 C    0  0  2  0  0  0  0  0  0  0  0  0
    0.7548   -0.2793    0.0000 C    0  0  2  0  0  0  0  0  0  0  0  0
    0.0503   -0.6888    0.0000 O    0  0  0  0  0  0  0  0  0  0  0  0
    0.6124    0.5518    0.0000 C    0  0  0  0  0  0  0  0  0  0  0  0
    0.0485    1.1678    0.0000 C    0  0  0  0  0  0  0  0  0  0  0  0
    0.2725    1.9607    0.0000 C    0  0  0  0  0  0  0  0  0  0  0  0
    1.0793    2.1575    0.0000 C    0  0  0  0  0  0  0  0  0  0  0  0
    1.5582    2.8429    0.0000 O    0  0  0  0  0  0  0  0  0  0  0  0
    2.3470    3.1292    0.0000 C    0  0  0  0  0  0  0  0  0  0  0  0
    2.8992    2.5090    0.0000 C    0  0  0  0  0  0  0  0  0  0  0  0
    3.7164    2.6248    0.0000 C    0  0  0  0  0  0  0  0  0  0  0  0
    3.9673    3.4142    0.0000 C    0  0  0  0  0  0  0  0  0  0  0  0
    3.4506    4.0632    0.0000 C    0  0  0  0  0  0  0  0  0  0  0  0
    3.9099    4.7655    0.0000 O    0  0  0  0  0  0  0  0  0  0  0  0
    4.6679    5.1243    0.0000 C    0  0  0  0  0  0  0  0  0  0  0  0
    5.1028    5.8320    0.0000 C    0  0  0  0  0  0  0  0  0  0  0  0
    5.9285    5.8158    0.0000 C    0  0  0  0  0  0  0  0  0  0  0  0
    6.3484    5.0941    0.0000 C    0  0  0  0  0  0  0  0  0  0  0  0
    5.8988    4.4024    0.0000 C    0  0  0  0  0  0  0  0  0  0  0  0
    5.0851    4.4109    0.0000 C    0  0  0  0  0  0  0  0  0  0  0  0
    4.6760    3.7062    0.0000 Cl   0  0  0  0  0  0  0  0  0  0  0  0
    7.1110    4.7262    0.0000 C    0  0  2  0  0  0  0  0  0  0  0  0
    7.6298    5.3544    0.0000 O    0  0  0  0  0  0  0  0  0  0  0  0
    7.3452    6.1178    0.0000 C    0  0  1  0  0  0  0  0  0  0  0  0
    6.5416    6.2530    0.0000 C    0  0  0  0  0  0  0  0  0  0  0  0
    6.2570    7.0166    0.0000 C    0  0  1  0  0  0  0  0  0  0  0  0
    5.5546    6.6037    0.0000 C    0  0  0  0  0  0  0  0  0  0  0  0
    5.7284    7.6366    0.0000 N    0  0  0  0  0  0  0  0  0  0  0  0
    6.7758    7.6448    0.0000 C    0  0  0  0  0  0  0  0  0  0  0  0
    6.0671    8.0467    0.0000 O    0  0  0  0  0  0  0  0  0  0  0  0
    7.0485    8.4126    0.0000 O    0  0  0  0  0  0  0  0  0  0  0  0
    7.5793    7.5096    0.0000 C    0  0  1  0  0  0  0  0  0  0  0  0
    8.0982    8.1379    0.0000 C    0  0  0  0  0  0  0  0  0  0  0  0
    7.8640    6.7462    0.0000 O    0  0  0  0  0  0  0  0  0  0  0  0
    7.6161    4.0474    0.0000 C    0  0  1  0  0  0  0  0  0  0  0  0
    7.1706    3.3308    0.0000 N    0  0  0  0  0  0  0  0  0  0  0  0
    6.7919    2.5857    0.0000 C    0  0  0  0  0  0  0  0  0  0  0  0
    6.0224    2.8539    0.0000 O    0  0  0  0  0  0  0  0  0  0  0  0
    6.6244    1.7617    0.0000 C    0  0  2  0  0  0  0  0  0  0  0  0
    5.7896    1.6872    0.0000 N    0  0  0  0  0  0  0  0  0  0  0  0
    5.0066    1.9552    0.0000 C    0  0  0  0  0  0  0  0  0  0  0  0
    5.1181    2.7624    0.0000 O    0  0  0  0  0  0  0  0  0  0  0  0
    4.1715    1.9090    0.0000 C    0  0  2  0  0  0  0  0  0  0  0  0
    4.0315    1.0819    0.0000 N    0  0  0  0  0  0  0  0  0  0  0  0
    4.1205    0.2587    0.0000 C    0  0  0  0  0  0  0  0  0  0  0  0
    4.9229    0.1167    0.0000 O    0  0  0  0  0  0  0  0  0  0  0  0
    3.7567   -0.4797    0.0000 C    0  0  1  0  0  0  0  0  0  0  0  0
    4.3454   -1.0429    0.0000 C    0  0  0  0  0  0  0  0  0  0  0  0
    5.1276   -0.8148    0.0000 C    0  0  0  0  0  0  0  0  0  0  0  0
    5.3211   -0.0232    0.0000 N    0  0  0  0  0  0  0  0  0  0  0  0
    5.7164   -1.3781    0.0000 O    0  0  0  0  0  0  0  0  0  0  0  0
    3.0350   -0.8759    0.0000 N    0  0  0  0  0  0  0  0  0  0  0  0
    2.2137   -0.9709    0.0000 C    0  0  0  0  0  0  0  0  0  0  0  0
    2.1807   -1.7850    0.0000 O    0  0  0  0  0  0  0  0  0  0  0  0
    7.1947    1.1257    0.0000 C    0  0  0  0  0  0  0  0  0  0  0  0
    7.0555    0.3050    0.0000 C    0  0  0  0  0  0  0  0  0  0  0  0
    7.6708   -0.2394    0.0000 C    0  0  0  0  0  0  0  0  0  0  0  0
    8.4484    0.0309    0.0000 C    0  0  0  0  0  0  0  0  0  0  0  0
    9.0564   -0.5115    0.0000 O    0  0  0  0  0  0  0  0  0  0  0  0
    8.6303    0.8421    0.0000 C    0  0  0  0  0  0  0  0  0  0  0  0
    7.9892    1.3679    0.0000 C    0  0  0  0  0  0  0  0  0  0  0  0
    9.3657    1.2532    0.0000 C    0  0  0  0  0  0  0  0  0  0  0  0
    9.8615    0.6066    0.0000 C    0  0  0  0  0  0  0  0  0  0  0  0
    9.5493   -0.1461    0.0000 O    0  0  0  0  0  0  0  0  0  0  0  0
   10.6694    0.7127    0.0000 C    0  0  0  0  0  0  0  0  0  0  0  0
   10.9815    1.4653    0.0000 C    0  0  0  0  0  0  0  0  0  0  0  0
   11.7894    1.5713    0.0000 O    0  0  0  0  0  0  0  0  0  0  0  0
   10.4857    2.1120    0.0000 C    0  0  0  0  0  0  0  0  0  0  0  0
    9.6778    2.0059    0.0000 C    0  0  0  0  0  0  0  0  0  0  0  0
    9.4776    2.8260    0.0000 C    0  0  1  0  0  0  0  0  0  0  0  0
    9.1370    3.5838    0.0000 N    0  0  0  0  0  0  0  0  0  0  0  0
    8.4585    4.0683    0.0000 C    0  0  0  0  0  0  0  0  0  0  0  0
    8.6976    4.8472    0.0000 O    0  0  0  0  0  0  0  0  0  0  0  0
   10.2482    3.0908    0.0000 C    0  0  0  0  0  0  0  0  0  0  0  0
   10.4042    3.8905    0.0000 O    0  0  0  0  0  0  0  0  0  0  0  0
   10.8629    2.5559    0.0000 O    0  0  0  0  0  0  0  0  0  0  0  0
    2.6366    3.9069    0.0000 C    0  0  0  0  0  0  0  0  0  0  0  0
    2.1104    4.5291    0.0000 O    0  0  0  0  0  0  0  0  0  0  0  0
    1.6395    1.5492    0.0000 C    0  0  0  0  0  0  0  0  0  0  0  0
    2.4330    1.7347    0.0000 Cl   0  0  0  0  0  0  0  0  0  0  0  0
    1.4108    0.7688    0.0000 C    0  0  0  0  0  0  0  0  0  0  0  0
  1  2  1  0  0  0  0
  3  2  1  6  0  0  0
  3  4  1  0  0  0  0
  4  5  1  0  0  0  0
  5  6  1  0  0  0  0
  5  7  1  0  0  0  0
  3  8  1  0  0  0  0
  8  9  2  0  0  0  0
  8 10  1  0  0  0  0
 11 10  1  6  0  0  0
 11 12  1  0  0  0  0
 12 13  1  6  0  0  0
 12 14  1  0  0  0  0
 14 15  2  0  0  0  0
 15 16  1  0  0  0  0
 16 17  2  0  0  0  0
 17 18  1  0  0  0  0
 18 19  1  0  0  0  0
 19 20  2  0  0  0  0
 20 21  1  0  0  0  0
 21 22  2  0  0  0  0
 22 23  1  0  0  0  0
 23 24  1  0  0  0  0
 24 25  1  0  0  0  0
 25 26  2  0  0  0  0
 26 27  1  0  0  0  0
 27 28  2  0  0  0  0
 28 29  1  0  0  0  0
 29 30  2  0  0  0  0
 25 30  1  0  0  0  0
 30 31  1  0  0  0  0
 28 32  1  0  0  0  0
 32 33  1  6  0  0  0
 34 33  1  1  0  0  0
 34 35  1  0  0  0  0
 35 36  1  0  0  0  0
 36 37  1  6  0  0  0
 36 38  1  1  0  0  0
 36 39  1  0  0  0  0
 39 40  1  0  0  0  0
 39 41  1  0  0  0  0
 39 42  1  0  0  0  0
 42 43  1  1  0  0  0
 42 44  1  0  0  0  0
 34 44  1  0  0  0  0
 32 45  1  0  0  0  0
 45 46  1  6  0  0  0
 46 47  1  0  0  0  0
 47 48  2  0  0  0  0
 47 49  1  0  0  0  0
 49 50  1  0  0  0  0
 50 51  1  0  0  0  0
 51 52  2  0  0  0  0
 51 53  1  0  0  0  0
 53 21  1  6  0  0  0
 53 54  1  0  0  0  0
 54 55  1  0  0  0  0
 55 56  2  0  0  0  0
 55 57  1  0  0  0  0
 57 58  1  1  0  0  0
 58 59  1  0  0  0  0
 59 60  1  0  0  0  0
 59 61  2  0  0  0  0
 57 62  1  0  0  0  0
 62 63  1  0  0  0  0
 11 63  1  0  0  0  0
 63 64  2  0  0  0  0
 49 65  1  1  0  0  0
 65 66  2  0  0  0  0
 66 67  1  0  0  0  0
 67 68  2  0  0  0  0
 68 69  1  0  0  0  0
 68 70  1  0  0  0  0
 70 71  2  0  0  0  0
 65 71  1  0  0  0  0
 70 72  1  0  0  0  0
 72 73  2  0  0  0  0
 73 74  1  0  0  0  0
 73 75  1  0  0  0  0
 75 76  2  0  0  0  0
 76 77  1  0  0  0  0
 76 78  1  0  0  0  0
 78 79  2  0  0  0  0
 72 79  1  0  0  0  0
 79 80  1  0  0  0  0
 80 81  1  0  0  0  0
 81 82  1  0  0  0  0
 45 82  1  0  0  0  0
 82 83  2  0  0  0  0
 80 84  1  1  0  0  0
 84 85  1  0  0  0  0
 84 86  2  0  0  0  0
 23 87  2  0  0  0  0
 19 87  1  0  0  0  0
 87 88  1  0  0  0  0
 17 89  1  0  0  0  0
 89 90  1  0  0  0  0
 89 91  2  0  0  0  0
 14 91  1  0  0  0  0
M  END
> <DRUGBANK_ID>
DB02792

> <DRUG_GROUPS>
experimental

> <GENERIC_NAME>
Deglucobalhimycin

> <CHEMICAL_FORMULA>
C60H65Cl2N9O20

> <MOLECULAR_WEIGHT>
1303.112

> <EXACT_MASS>
1301.372290979

> <IUPAC_NAME>
(1R,2S,18R,19R,22R,25R,28R,40R)-2-{[(2R,4R,6R)-4-amino-5,5-dihydroxy-4,6-dimethyloxan-2-yl]oxy}-22-(carbamoylmethyl)-47,49-dichloro-18,32,35,37,48-pentahydroxy-19-[(2R)-4-methyl-2-(methylamino)pentanamido]-20,23,26,42,44-pentaoxo-7,13-dioxa-21,24,27,41,43-pentaazaoctacyclo[26.14.2.2^{3,6}.2^{14,17}.1^{8,12}.1^{29,33}.0^{10,25}.0^{34,39}]pentaconta-3,5,8(48),9,11,14,16,29,31,33(45),34,36,38,46,49-pentadecaene-40-carboxylic acid

> <IUPAC_TRADITIONAL_NAME>
deglucobalhimycin

> <INCHI_IDENTIFIER>
InChI=1S/C60H65Cl2N9O20/c1-22(2)12-33(65-5)52(78)70-47-49(76)25-7-10-37(31(61)14-25)89-39-16-27-17-40(50(39)77)90-38-11-8-26(15-32(38)62)51(91-42-21-59(4,64)60(86,87)23(3)88-42)48-57(83)69-46(58(84)85)30-18-28(72)19-36(74)43(30)29-13-24(6-9-35(29)73)44(54(80)71-48)68-55(81)45(27)67-53(79)34(20-41(63)75)66-56(47)82/h6-11,13-19,22-23,33-34,42,44-49,51,65,72-74,76-77,86-87H,12,20-21,64H2,1-5H3,(H2,63,75)(H,66,82)(H,67,79)(H,68,81)(H,69,83)(H,70,78)(H,71,80)(H,84,85)/t23-,33-,34-,42+,44-,45-,46-,47-,48-,49-,51+,59-/m1/s1

> <INCHI_KEY>
InChIKey=ABWSMPORYONAHZ-MLCXWKRQSA-N

> <SMILES>
CN[C@H](CC(C)C)C(=O)N[C@@H]1[C@H](O)C2=CC=C(OC3=CC4=CC(OC5=CC=C(C=C5Cl)[C@H](O[C@H]5C[C@@](C)(N)C(O)(O)[C@@H](C)O5)[C@H]5NC(=O)[C@H](NC(=O)[C@@H]4NC(=O)[C@@H](CC(N)=O)NC1=O)C1=CC=C(O)C(=C1)C1=C(O)C=C(O)C=C1[C@@H](NC5=O)C(O)=O)=C3O)C(Cl)=C2

> <JCHEM_ACCEPTOR_COUNT>
20

> <JCHEM_DONOR_COUNT>
17

> <JCHEM_ACIDIC_PKA>
2.99

> <JCHEM_BASIC_PKA>
8.75

> <JCHEM_PHYSIOLOGICAL_CHARGE>
1

> <ALOGPS_LOGP>
1.62

> <JCHEM_LOGP>
-2.9

> <ALOGPS_LOGS>
-3.9

> <JCHEM_POLARIZABILITY>
125.05

> <JCHEM_POLAR_SURFACE_AREA>
471.57

> <JCHEM_REFRACTIVITY>
315.93

> <JCHEM_ROTATABLE_BOND_COUNT>
10

> <ALOGPS_SOLUBILITY>
1.55e-01 g/l __ 

$$$$
