
  Mrv0541 02231215592D          

 32 35  0  0  1  0            999 V2000
   -1.7029    0.2165    0.0000 C   0  0  0  0  0  0  0  0  0  0  0  0
   -2.4173   -0.1960    0.0000 C   0  0  0  0  0  0  0  0  0  0  0  0
   -1.7029   -1.4335    0.0000 C   0  0  0  0  0  0  0  0  0  0  0  0
   -0.2739   -1.4335    0.0000 C   0  0  0  0  0  0  0  0  0  0  0  0
   -0.9884   -0.1960    0.0000 C   0  0  2  0  0  0  0  0  0  0  0  0
   -0.2739    1.0415    0.0000 C   0  0  0  0  0  0  0  0  0  0  0  0
    0.4405    1.4540    0.0000 C   0  0  0  0  0  0  0  0  0  0  0  0
    1.9396   -0.0384    0.0000 C   0  0  0  0  0  0  0  0  0  0  0  0
    2.4246    0.6290    0.0000 C   0  0  0  0  0  0  0  0  0  0  0  0
   -0.9884    0.6290    0.0000 C   0  0  0  0  0  0  0  0  0  0  0  0
   -0.2739    0.2165    0.0000 C   0  0  1  0  0  0  0  0  0  0  0  0
    0.4405   -0.1960    0.0000 C   0  0  2  0  0  0  0  0  0  0  0  0
    1.1550    0.2165    0.0000 C   0  0  1  0  0  0  0  0  0  0  0  0
    1.1550    1.0415    0.0000 C   0  0  2  0  0  0  0  0  0  0  0  0
    1.1550    1.8665    0.0000 C   0  0  0  0  0  0  0  0  0  0  0  0
    3.3686    2.1214    0.0000 C   0  0  0  0  0  0  0  0  0  0  0  0
    2.6541    2.5339    0.0000 C   0  0  0  0  0  0  0  0  0  0  0  0
    1.2251    2.5339    0.0000 C   0  0  0  0  0  0  0  0  0  0  0  0
    1.9396    2.1214    0.0000 C   0  0  1  0  0  0  0  0  0  0  0  0
    1.9396    1.2964    0.0000 C   0  0  1  0  0  0  0  0  0  0  0  0
   -2.4173   -1.0210    0.0000 C   0  0  2  0  0  0  0  0  0  0  0  0
   -3.1318   -1.4335    0.0000 O   0  0  0  0  0  0  0  0  0  0  0  0
    0.4405   -1.0210    0.0000 C   0  0  2  0  0  0  0  0  0  0  0  0
    1.1550   -1.4335    0.0000 O   0  0  0  0  0  0  0  0  0  0  0  0
   -0.9884   -1.0210    0.0000 C   0  0  1  0  0  0  0  0  0  0  0  0
    4.0830    2.5339    0.0000 C   0  0  0  0  0  0  0  0  0  0  0  0
    4.0830    3.3589    0.0000 O   0  0  0  0  0  0  0  0  0  0  0  0
    4.7975    2.1214    0.0000 N   0  0  0  0  0  0  0  0  0  0  0  0
    5.5119    2.5339    0.0000 C   0  0  0  0  0  0  0  0  0  0  0  0
    6.9409    2.5339    0.0000 O   0  0  0  0  0  0  0  0  0  0  0  0
    6.2264    2.1214    0.0000 C   0  0  0  0  0  0  0  0  0  0  0  0
    6.2264    1.2964    0.0000 O   0  0  0  0  0  0  0  0  0  0  0  0
 13 14  1  0  0  0  0
 14 20  1  0  0  0  0
 14  7  1  0  0  0  0
 12 13  1  0  0  0  0
 13  8  1  1  0  0  0
 11  6  1  1  0  0  0
  5 11  1  0  0  0  0
 11 12  1  0  0  0  0
 12 23  1  6  0  0  0
 25  5  1  0  0  0  0
  5 10  1  1  0  0  0
  5  1  1  0  0  0  0
 20  9  1  0  0  0  0
  6  7  1  0  0  0  0
  9  8  1  0  0  0  0
  4 23  1  0  0  0  0
 25  3  1  6  0  0  0
 25  4  1  0  0  0  0
  2  1  1  0  0  0  0
 21  3  1  0  0  0  0
 21  2  1  0  0  0  0
 14 15  1  1  0  0  0
 16 17  1  0  0  0  0
 16 26  1  0  0  0  0
 19 17  1  0  0  0  0
 20 19  1  1  0  0  0
 19 18  1  6  0  0  0
 21 22  1  6  0  0  0
 23 24  1  6  0  0  0
 26 28  1  0  0  0  0
 26 27  2  0  0  0  0
 28 29  1  0  0  0  0
 29 31  1  0  0  0  0
 31 30  1  0  0  0  0
 31 32  2  0  0  0  0
M  END
> <DRUGBANK_ID>
DB02123

> <DRUG_GROUPS>
experimental

> <GENERIC_NAME>
Glycochenodeoxycholic Acid

> <CHEMICAL_FORMULA>
C26H43NO5

> <MOLECULAR_WEIGHT>
449.6233

> <EXACT_MASS>
449.314123491

> <IUPAC_NAME>
2-[(4R)-4-[(1S,2S,5R,7S,9R,10R,11S,14R,15R)-5,9-dihydroxy-2,15-dimethyltetracyclo[8.7.0.0^{2,7}.0^{11,15}]heptadecan-14-yl]pentanamido]acetic acid

> <IUPAC_TRADITIONAL_NAME>
chenodeoxycholylglycine

> <INCHI_IDENTIFIER>
InChI=1S/C26H43NO5/c1-15(4-7-22(30)27-14-23(31)32)18-5-6-19-24-20(9-11-26(18,19)3)25(2)10-8-17(28)12-16(25)13-21(24)29/h15-21,24,28-29H,4-14H2,1-3H3,(H,27,30)(H,31,32)/t15-,16+,17-,18-,19+,20+,21-,24+,25+,26-/m1/s1

> <INCHI_KEY>
InChIKey=GHCZAUBVMUEKKP-GYPHWSFCSA-N

> <SMILES>
C[C@H](CCC(=O)NCC(O)=O)[C@H]1CC[C@H]2[C@@H]3[C@H](O)C[C@@H]4C[C@H](O)CC[C@]4(C)[C@H]3CC[C@]12C

> <JCHEM_ACCEPTOR_COUNT>
5

> <JCHEM_DONOR_COUNT>
4

> <JCHEM_ACIDIC_PKA>
3.77

> <JCHEM_BASIC_PKA>
-0.29

> <JCHEM_PHYSIOLOGICAL_CHARGE>
-1

> <ALOGPS_LOGP>
2.4

> <JCHEM_LOGP>
2.61

> <ALOGPS_LOGS>
-4.8

> <JCHEM_POLARIZABILITY>
52.08

> <JCHEM_POLAR_SURFACE_AREA>
106.86

> <JCHEM_REFRACTIVITY>
122.08

> <JCHEM_ROTATABLE_BOND_COUNT>
6

> <ALOGPS_SOLUBILITY>
7.93e-03 g/l __ 

$$$$
