MNX
  Mrv0541 02231216012D          

 20 22  0  0  0  0            999 V2000
    1.6955   -0.7586    0.0000 C   0  0  0  0  0  0  0  0  0  0  0  0
    0.9811   -0.3461    0.0000 C   0  0  0  0  0  0  0  0  0  0  0  0
    0.9811    0.4789    0.0000 C   0  0  0  0  0  0  0  0  0  0  0  0
    1.6955    0.8914    0.0000 C   0  0  0  0  0  0  0  0  0  0  0  0
    2.4100    0.4789    0.0000 C   0  0  0  0  0  0  0  0  0  0  0  0
    2.4100   -0.3461    0.0000 C   0  0  0  0  0  0  0  0  0  0  0  0
    0.2666    0.8914    0.0000 O   0  0  0  0  0  0  0  0  0  0  0  0
   -0.4479    0.4789    0.0000 C   0  0  0  0  0  0  0  0  0  0  0  0
   -0.4479   -0.3461    0.0000 C   0  0  0  0  0  0  0  0  0  0  0  0
    0.2666   -0.7586    0.0000 C   0  0  0  0  0  0  0  0  0  0  0  0
   -1.1623   -0.7586    0.0000 C   0  0  0  0  0  0  0  0  0  0  0  0
   -1.8768   -0.3461    0.0000 C   0  0  0  0  0  0  0  0  0  0  0  0
   -1.8768    0.4789    0.0000 C   0  0  0  0  0  0  0  0  0  0  0  0
   -1.1623    0.8914    0.0000 C   0  0  0  0  0  0  0  0  0  0  0  0
    0.2666   -1.5836    0.0000 O   0  0  0  0  0  0  0  0  0  0  0  0
    1.6955   -1.5836    0.0000 O   0  0  0  0  0  0  0  0  0  0  0  0
   -1.1623   -1.5836    0.0000 O   0  0  0  0  0  0  0  0  0  0  0  0
   -1.1623    1.7164    0.0000 N   0  3  0  0  0  0  0  0  0  0  0  0
   -1.8768    2.1289    0.0000 O   0  5  0  0  0  0  0  0  0  0  0  0
   -0.4479    2.1289    0.0000 O   0  0  0  0  0  0  0  0  0  0  0  0
  1  2  2  0  0  0  0
  1  6  1  0  0  0  0
  1 16  1  0  0  0  0
  2  3  1  0  0  0  0
  2 10  1  0  0  0  0
  3  4  2  0  0  0  0
  3  7  1  0  0  0  0
  4  5  1  0  0  0  0
  5  6  2  0  0  0  0
  7  8  1  0  0  0  0
  8  9  2  0  0  0  0
  8 14  1  0  0  0  0
  9 10  1  0  0  0  0
  9 11  1  0  0  0  0
 10 15  2  0  0  0  0
 11 12  2  0  0  0  0
 11 17  1  0  0  0  0
 12 13  1  0  0  0  0
 13 14  2  0  0  0  0
 14 18  1  0  0  0  0
 18 19  1  0  0  0  0
 18 20  2  0  0  0  0
M  END
> <DRUGBANK_ID>
DB02170

> <DRUG_GROUPS>
experimental

> <GENERIC_NAME>
1,8-Di-Hydroxy-4-Nitro-Xanthen-9-One

> <CHEMICAL_FORMULA>
C13H7NO6

> <MOLECULAR_WEIGHT>
273.1978

> <EXACT_MASS>
273.027336961

> <IUPAC_NAME>
1,8-dihydroxy-4-nitro-9H-xanthen-9-one

> <IUPAC_TRADITIONAL_NAME>
1,8-dihydroxy-4-nitroxanthen-9-one

> <INCHI_IDENTIFIER>
InChI=1S/C13H7NO6/c15-7-2-1-3-9-10(7)12(17)11-8(16)5-4-6(14(18)19)13(11)20-9/h1-5,15-16H

> <INCHI_KEY>
InChIKey=ZOHCDJRFYXKEQW-UHFFFAOYSA-N

> <SMILES>
OC1=CC=C(C2=C1C(=O)C1=C(O)C=CC=C1O2)[N+]([O-])=O

> <JCHEM_ACCEPTOR_COUNT>
5

> <JCHEM_DONOR_COUNT>
2

> <JCHEM_ACIDIC_PKA>
7.26

> <JCHEM_BASIC_PKA>
-5.2

> <JCHEM_PHYSIOLOGICAL_CHARGE>
0

> <ALOGPS_LOGP>
2.53

> <JCHEM_LOGP>
3.59

> <ALOGPS_LOGS>
-2.9

> <JCHEM_POLARIZABILITY>
24.39

> <JCHEM_POLAR_SURFACE_AREA>
112.58

> <JCHEM_REFRACTIVITY>
68.1

> <JCHEM_ROTATABLE_BOND_COUNT>
1

> <ALOGPS_SOLUBILITY>
3.25e-01 g/l __ 

$$$$
