YZ9
  Mrv0541 02231216252D          

 17 18  0  0  0  0            999 V2000
    3.0954   -0.1385    0.0000 C   0  0  0  0  0  0  0  0  0  0  0  0
    2.3809   -0.5510    0.0000 C   0  0  0  0  0  0  0  0  0  0  0  0
    0.9520   -1.3760    0.0000 O   0  0  0  0  0  0  0  0  0  0  0  0
    1.6665   -0.1385    0.0000 O   0  0  0  0  0  0  0  0  0  0  0  0
   -1.9059   -0.5510    0.0000 C   0  0  0  0  0  0  0  0  0  0  0  0
   -0.4770   -0.5510    0.0000 C   0  0  0  0  0  0  0  0  0  0  0  0
   -1.9059    1.0990    0.0000 C   0  0  0  0  0  0  0  0  0  0  0  0
   -0.4770    1.0990    0.0000 O   0  0  0  0  0  0  0  0  0  0  0  0
   -1.1914   -0.1385    0.0000 C   0  0  0  0  0  0  0  0  0  0  0  0
   -1.1914    0.6865    0.0000 C   0  0  0  0  0  0  0  0  0  0  0  0
    0.2375    0.6865    0.0000 C   0  0  0  0  0  0  0  0  0  0  0  0
    0.9520   -0.5510    0.0000 C   0  0  0  0  0  0  0  0  0  0  0  0
   -3.3348    1.0990    0.0000 O   0  0  0  0  0  0  0  0  0  0  0  0
    0.9520    1.0990    0.0000 O   0  0  0  0  0  0  0  0  0  0  0  0
   -2.6204   -0.1385    0.0000 C   0  0  0  0  0  0  0  0  0  0  0  0
    0.2375   -0.1385    0.0000 C   0  0  0  0  0  0  0  0  0  0  0  0
   -2.6204    0.6865    0.0000 C   0  0  0  0  0  0  0  0  0  0  0  0
  1  2  1  0  0  0  0
  2  4  1  0  0  0  0
  3 12  2  0  0  0  0
  4 12  1  0  0  0  0
  5  9  2  0  0  0  0
  5 15  1  0  0  0  0
  6  9  1  0  0  0  0
  6 16  2  0  0  0  0
  7 10  2  0  0  0  0
  7 17  1  0  0  0  0
  8 10  1  0  0  0  0
  8 11  1  0  0  0  0
  9 10  1  0  0  0  0
 11 14  2  0  0  0  0
 11 16  1  0  0  0  0
 12 16  1  0  0  0  0
 13 17  1  0  0  0  0
 15 17  2  0  0  0  0
M  END
> <DRUGBANK_ID>
DB02728

> <DRUG_GROUPS>
experimental

> <GENERIC_NAME>
7-Hydroxy-2-Oxo-Chromene-3-Carboxylic Acid Ethyl Ester

> <CHEMICAL_FORMULA>
C12H10O5

> <MOLECULAR_WEIGHT>
234.2048

> <EXACT_MASS>
234.05282343

> <IUPAC_NAME>
ethyl 7-hydroxy-2-oxo-2H-chromene-3-carboxylate

> <IUPAC_TRADITIONAL_NAME>
ethyl 7-hydroxy-2-oxochromene-3-carboxylate

> <INCHI_IDENTIFIER>
InChI=1S/C12H10O5/c1-2-16-11(14)9-5-7-3-4-8(13)6-10(7)17-12(9)15/h3-6,13H,2H2,1H3

> <INCHI_KEY>
InChIKey=IETDBZQIWIJQJG-UHFFFAOYSA-N

> <SMILES>
CCOC(=O)C1=CC2=CC=C(O)C=C2OC1=O

> <JCHEM_ACCEPTOR_COUNT>
3

> <JCHEM_DONOR_COUNT>
1

> <JCHEM_ACIDIC_PKA>
7.67

> <JCHEM_BASIC_PKA>
-7

> <JCHEM_PHYSIOLOGICAL_CHARGE>
0

> <ALOGPS_LOGP>
2.34

> <JCHEM_LOGP>
1.8

> <ALOGPS_LOGS>
-2.5

> <JCHEM_POLARIZABILITY>
22.59

> <JCHEM_POLAR_SURFACE_AREA>
72.83

> <JCHEM_REFRACTIVITY>
59.12

> <JCHEM_ROTATABLE_BOND_COUNT>
3

> <ALOGPS_SOLUBILITY>
8.06e-01 g/l __ 

$$$$
