
  Mrv0541 02231216112D          

 10  9  0  0  1  0            999 V2000
    4.6184    2.6664    0.0000 N   0  0  0  0  0  0  0  0  0  0  0  0
    4.6184    1.8414    0.0000 C   0  0  1  0  0  0  0  0  0  0  0  0
    3.9039    1.4289    0.0000 C   0  0  0  0  0  0  0  0  0  0  0  0
    3.1895    1.8414    0.0000 S   0  0  0  0  0  0  0  0  0  0  0  0
    2.4750    1.4289    0.0000 C   0  0  0  0  0  0  0  0  0  0  0  0
    1.7605    1.8414    0.0000 C   0  0  0  0  0  0  0  0  0  0  0  0
    1.0461    1.4289    0.0000 O   0  0  0  0  0  0  0  0  0  0  0  0
    5.3329    1.4289    0.0000 C   0  0  0  0  0  0  0  0  0  0  0  0
    6.0474    1.8414    0.0000 O   0  0  0  0  0  0  0  0  0  0  0  0
    5.3329    0.6039    0.0000 O   0  0  0  0  0  0  0  0  0  0  0  0
  2  1  1  6  0  0  0
  2  3  1  0  0  0  0
  3  4  1  0  0  0  0
  4  5  1  0  0  0  0
  5  6  1  0  0  0  0
  6  7  1  0  0  0  0
  2  8  1  0  0  0  0
  8  9  1  0  0  0  0
  8 10  2  0  0  0  0
M  END
> <DRUGBANK_ID>
DB02413

> <DRUG_GROUPS>
experimental

> <GENERIC_NAME>
Hydroxyethylcysteine

> <CHEMICAL_FORMULA>
C5H11NO3S

> <MOLECULAR_WEIGHT>
165.211

> <EXACT_MASS>
165.045963913

> <IUPAC_NAME>
(2R)-2-amino-3-[(2-hydroxyethyl)sulfanyl]propanoic acid

> <IUPAC_TRADITIONAL_NAME>
hydroxyethylcysteine

> <INCHI_IDENTIFIER>
InChI=1S/C5H11NO3S/c6-4(5(8)9)3-10-2-1-7/h4,7H,1-3,6H2,(H,8,9)/t4-/m0/s1

> <INCHI_KEY>
InChIKey=MWFRVMDVLYIXJF-BYPYZUCNSA-N

> <SMILES>
N[C@@H](CSCCO)C(O)=O

> <JCHEM_ACCEPTOR_COUNT>
4

> <JCHEM_DONOR_COUNT>
3

> <JCHEM_ACIDIC_PKA>
2.26

> <JCHEM_BASIC_PKA>
9.14

> <JCHEM_PHYSIOLOGICAL_CHARGE>
0

> <ALOGPS_LOGP>
-2.6

> <JCHEM_LOGP>
-3.4

> <ALOGPS_LOGS>
-0.63

> <JCHEM_POLARIZABILITY>
16.72

> <JCHEM_POLAR_SURFACE_AREA>
83.55

> <JCHEM_REFRACTIVITY>
39.37

> <JCHEM_ROTATABLE_BOND_COUNT>
5

> <ALOGPS_SOLUBILITY>
3.83e+01 g/l __ 

$$$$
