
  Mrv0541 02231216302D          

 70 72  0  0  1  0            999 V2000
    0.7568  -11.7169    0.0000 C   0  0  0  0  0  0  0  0  0  0  0  0
    1.4713  -12.1294    0.0000 O   0  0  0  0  0  0  0  0  0  0  0  0
    2.1858  -11.7169    0.0000 C   0  0  0  0  0  0  0  0  0  0  0  0
    2.9003  -12.1294    0.0000 C   0  0  1  0  0  0  0  0  0  0  0  0
    3.6147  -11.7169    0.0000 C   0  0  2  0  0  0  0  0  0  0  0  0
    3.6147  -10.8919    0.0000 O   0  0  0  0  0  0  0  0  0  0  0  0
    4.3292  -12.1294    0.0000 C   0  0  2  0  0  0  0  0  0  0  0  0
    4.3292  -12.9544    0.0000 O   0  0  0  0  0  0  0  0  0  0  0  0
    5.0437  -11.7169    0.0000 C   0  0  0  0  0  0  0  0  0  0  0  0
    5.0437  -10.8919    0.0000 O   0  0  0  0  0  0  0  0  0  0  0  0
    5.7581  -12.1294    0.0000 N   0  0  0  0  0  0  0  0  0  0  0  0
    6.4726  -11.7169    0.0000 C   0  0  0  0  0  0  0  0  0  0  0  0
    7.1871  -12.1294    0.0000 C   0  0  0  0  0  0  0  0  0  0  0  0
    7.9015  -11.7169    0.0000 C   0  0  2  0  0  0  0  0  0  0  0  0
    7.9015  -10.8919    0.0000 C   0  0  0  0  0  0  0  0  0  0  0  0
    8.6160  -12.1294    0.0000 C   0  0  0  0  0  0  0  0  0  0  0  0
    9.3697  -11.7938    0.0000 N   0  0  0  0  0  0  0  0  0  0  0  0
    9.9217  -12.4069    0.0000 C   0  0  0  0  0  0  0  0  0  0  0  0
   10.7422  -12.3207    0.0000 C   0  0  0  0  0  0  0  0  0  0  0  0
   11.0778  -11.5670    0.0000 C   0  0  0  0  0  0  0  0  0  0  0  0
   11.8982  -11.4808    0.0000 C   0  0  0  0  0  0  0  0  0  0  0  0
   12.3832  -12.1482    0.0000 C   0  0  2  0  0  0  0  0  0  0  0  0
   13.2036  -12.0620    0.0000 O   0  0  0  0  0  0  0  0  0  0  0  0
   13.6886  -12.7294    0.0000 C   0  0  2  0  0  0  0  0  0  0  0  0
   13.3530  -13.4831    0.0000 C   0  0  0  0  0  0  0  0  0  0  0  0
   12.5325  -13.5693    0.0000 C   0  0  2  0  0  0  0  0  0  0  0  0
   12.1970  -14.3230    0.0000 O   0  0  0  0  0  0  0  0  0  0  0  0
   12.0476  -12.9019    0.0000 C   0  0  1  0  0  0  0  0  0  0  0  0
   11.2271  -12.9881    0.0000 C   0  0  0  0  0  0  0  0  0  0  0  0
   14.1011  -12.0149    0.0000 O   0  0  0  0  0  0  0  0  0  0  0  0
   14.9080  -12.1865    0.0000 C   0  0  2  0  0  0  0  0  0  0  0  0
   15.5211  -11.6344    0.0000 C   0  0  2  0  0  0  0  0  0  0  0  0
   16.3058  -11.8894    0.0000 C   0  0  0  0  0  0  0  0  0  0  0  0
   16.9189  -11.3373    0.0000 C   0  0  2  0  0  0  0  0  0  0  0  0
   16.7473  -10.5304    0.0000 O   0  0  0  0  0  0  0  0  0  0  0  0
   17.7035  -11.5923    0.0000 C   0  0  1  0  0  0  0  0  0  0  0  0
   17.8750  -12.3993    0.0000 C   0  0  0  0  0  0  0  0  0  0  0  0
   18.3166  -11.0403    0.0000 C   0  0  2  0  0  0  0  0  0  0  0  0
   18.1450  -10.2333    0.0000 O   0  0  0  0  0  0  0  0  0  0  0  0
   19.1012  -11.2952    0.0000 C   0  0  2  0  0  0  0  0  0  0  0  0
   19.7143  -10.7432    0.0000 C   0  0  0  0  0  0  0  0  0  0  0  0
   19.2727  -12.1022    0.0000 C   0  0  0  0  0  0  0  0  0  0  0  0
   20.0573  -12.3571    0.0000 C   0  0  0  0  0  0  0  0  0  0  0  0
   20.6704  -11.8051    0.0000 C   0  0  0  0  0  0  0  0  0  0  0  0
   20.2289  -13.1641    0.0000 C   0  0  0  0  0  0  0  0  0  0  0  0
   21.0135  -13.4190    0.0000 C   0  0  0  0  0  0  0  0  0  0  0  0
   19.6158  -13.7161    0.0000 C   0  0  0  0  0  0  0  0  0  0  0  0
   19.7873  -14.5231    0.0000 C   0  0  0  0  0  0  0  0  0  0  0  0
   19.1742  -15.0751    0.0000 C   0  0  0  0  0  0  0  0  0  0  0  0
   19.3457  -15.8821    0.0000 C   0  0  0  0  0  0  0  0  0  0  0  0
   20.1304  -16.1370    0.0000 C   0  0  0  0  0  0  0  0  0  0  0  0
   18.7326  -16.4341    0.0000 C   0  0  0  0  0  0  0  0  0  0  0  0
   18.9042  -17.2411    0.0000 C   0  0  0  0  0  0  0  0  0  0  0  0
   19.0757  -18.0481    0.0000 N   0  0  0  0  0  0  0  0  0  0  0  0
   15.3496  -10.8275    0.0000 O   0  0  0  0  0  0  0  0  0  0  0  0
   15.9627  -10.2754    0.0000 C   0  0  0  0  0  0  0  0  0  0  0  0
   14.9943  -13.0070    0.0000 C   0  0  1  0  0  0  0  0  0  0  0  0
   15.7088  -13.4195    0.0000 O   0  0  0  0  0  0  0  0  0  0  0  0
   15.7088  -14.2445    0.0000 P   0  0  0  0  0  0  0  0  0  0  0  0
   14.8838  -14.2445    0.0000 O   0  0  0  0  0  0  0  0  0  0  0  0
   16.5338  -14.2445    0.0000 O   0  0  0  0  0  0  0  0  0  0  0  0
   15.7088  -15.0695    0.0000 O   0  0  0  0  0  0  0  0  0  0  0  0
   14.2406  -13.3425    0.0000 C   0  0  0  0  0  0  0  0  0  0  0  0
   14.4873  -14.1298    0.0000 C   0  0  0  0  0  0  0  0  0  0  0  0
   13.6950  -13.9614    0.0000 C   0  0  0  0  0  0  0  0  0  0  0  0
    9.5092  -13.1214    0.0000 C   0  0  0  0  0  0  0  0  0  0  0  0
    8.7023  -12.9499    0.0000 O   0  0  0  0  0  0  0  0  0  0  0  0
    2.9003  -12.9544    0.0000 N   0  0  0  0  0  0  0  0  0  0  0  0
    3.6147  -13.3669    0.0000 C   0  0  0  0  0  0  0  0  0  0  0  0
    2.1858  -13.3669    0.0000 C   0  0  0  0  0  0  0  0  0  0  0  0
  1  2  1  0  0  0  0
  2  3  1  0  0  0  0
  3  4  1  0  0  0  0
  4  5  1  0  0  0  0
  5  6  1  6  0  0  0
  5  7  1  0  0  0  0
  7  8  1  1  0  0  0
  7  9  1  0  0  0  0
  9 10  2  0  0  0  0
  9 11  1  0  0  0  0
 11 12  1  0  0  0  0
 12 13  1  0  0  0  0
 13 14  1  0  0  0  0
 14 15  1  6  0  0  0
 14 16  1  0  0  0  0
 16 17  2  0  0  0  0
 17 18  1  0  0  0  0
 18 19  1  0  0  0  0
 19 20  2  0  0  0  0
 20 21  1  0  0  0  0
 22 21  1  6  0  0  0
 22 23  1  0  0  0  0
 24 23  1  6  0  0  0
 24 25  1  0  0  0  0
 25 26  1  0  0  0  0
 26 27  1  6  0  0  0
 26 28  1  0  0  0  0
 22 28  1  0  0  0  0
 28 29  1  1  0  0  0
 24 30  1  0  0  0  0
 30 31  1  0  0  0  0
 31 32  1  6  0  0  0
 32 33  1  0  0  0  0
 33 34  1  0  0  0  0
 34 35  1  6  0  0  0
 34 36  1  0  0  0  0
 36 37  1  6  0  0  0
 36 38  1  0  0  0  0
 38 39  1  6  0  0  0
 38 40  1  0  0  0  0
 40 41  1  6  0  0  0
 40 42  1  0  0  0  0
 42 43  2  0  0  0  0
 43 44  1  0  0  0  0
 43 45  1  0  0  0  0
 45 46  1  0  0  0  0
 45 47  2  0  0  0  0
 47 48  1  0  0  0  0
 48 49  2  0  0  0  0
 49 50  1  0  0  0  0
 50 51  1  0  0  0  0
 50 52  2  0  0  0  0
 52 53  1  0  0  0  0
 53 54  3  0  0  0  0
 32 55  1  1  0  0  0
 55 56  1  0  0  0  0
 31 57  1  0  0  0  0
 57 58  1  1  0  0  0
 58 59  1  0  0  0  0
 59 60  1  0  0  0  0
 59 61  1  0  0  0  0
 59 62  2  0  0  0  0
 57 63  1  0  0  0  0
 24 63  1  0  0  0  0
 63 64  1  0  0  0  0
 63 65  1  0  0  0  0
 18 66  2  0  0  0  0
 66 67  1  0  0  0  0
 16 67  1  0  0  0  0
  4 68  1  1  0  0  0
 68 69  1  0  0  0  0
 68 70  1  0  0  0  0
M  END
> <DRUGBANK_ID>
DB02860

> <DRUG_GROUPS>
experimental

> <GENERIC_NAME>
Calyculin A

> <CHEMICAL_FORMULA>
C50H81N4O15P

> <MOLECULAR_WEIGHT>
1009.1697

> <EXACT_MASS>
1008.543604454

> <IUPAC_NAME>
{[(2R,3S,5R,7S,8R,9S)-2-[(1S,3S,4R,5R,6R,7E,9E,11E,13E)-14-cyano-3,5-dihydroxy-1-methoxy-4,6,8,9,13-pentamethyltetradeca-7,9,11,13-tetraen-1-yl]-7-[(2E)-3-{2-[(2S)-4-[(2S,3S,4S)-4-(dimethylamino)-2,3-dihydroxy-5-methoxypentanamido]butan-2-yl]-1,3-oxazol-4-yl}prop-2-en-1-yl]-9-hydroxy-4,4,8-trimethyl-1,6-dioxaspiro[4.5]decan-3-yl]oxy}phosphonic acid

> <IUPAC_TRADITIONAL_NAME>
[(2R,3S,5R,7S,8R,9S)-2-[(1S,3S,4R,5R,6R,7E,9E,11E,13E)-14-cyano-3,5-dihydroxy-1-methoxy-4,6,8,9,13-pentamethyltetradeca-7,9,11,13-tetraen-1-yl]-7-[(2E)-3-{2-[(2S)-4-[(2S,3S,4S)-4-(dimethylamino)-2,3-dihydroxy-5-methoxypentanamido]butan-2-yl]-1,3-oxazol-4-yl}prop-2-en-1-yl]-9-hydroxy-4,4,8-trimethyl-1,6-dioxaspiro[4.5]decan-3-yl]oxyphosphonic acid

> <INCHI_IDENTIFIER>
InChI=1S/C50H81N4O15P/c1-29(20-22-51)16-14-17-30(2)32(4)24-33(5)42(57)35(7)38(55)25-41(65-13)45-46(69-70(61,62)63)49(8,9)50(68-45)26-39(56)34(6)40(67-50)19-15-18-36-27-66-48(53-36)31(3)21-23-52-47(60)44(59)43(58)37(28-64-12)54(10)11/h14-18,20,24,27,31,33-35,37-46,55-59H,19,21,23,25-26,28H2,1-13H3,(H,52,60)(H2,61,62,63)/b16-14+,18-15+,29-20+,30-17+,32-24+/t31-,33+,34+,35+,37-,38-,39-,40-,41-,42+,43-,44-,45+,46+,50+/m0/s1

> <INCHI_KEY>
InChIKey=FKAWLXNLHHIHLA-UWOGDOESSA-N

> <SMILES>
COC[C@H](N(C)C)[C@H](O)[C@H](O)C(=O)NCC[C@H](C)C1=NC(=CO1)\C=C\C[C@@H]1O[C@@]2(O[C@H]([C@@H](OC)C[C@H](O)[C@@H](C)[C@H](O)[C@H](C)\C=C(/C)\C(\C)=C\C=C\C(\C)=C\C#N)[C@@H](OP(O)(O)=O)C2(C)C)C[C@H](O)[C@H]1C

> <JCHEM_ACCEPTOR_COUNT>
16

> <JCHEM_DONOR_COUNT>
8

> <JCHEM_ACIDIC_PKA>
1.15

> <JCHEM_BASIC_PKA>
8.22

> <JCHEM_PHYSIOLOGICAL_CHARGE>
-1

> <ALOGPS_LOGP>
3.65

> <JCHEM_LOGP>
1.77

> <ALOGPS_LOGS>
-3.6

> <JCHEM_POLARIZABILITY>
108.44

> <JCHEM_POLAR_SURFACE_AREA>
286.99

> <JCHEM_REFRACTIVITY>
267.1

> <JCHEM_ROTATABLE_BOND_COUNT>
26

> <ALOGPS_SOLUBILITY>
2.49e-01 g/l __ 

$$$$
