
  Mrv0541 02231216162D          

 10  9  0  0  0  0            999 V2000
   -0.1914   -0.7145    0.0000 O   0  0  0  0  0  0  0  0  0  0  0  0
    0.5230   -1.1270    0.0000 C   0  0  0  0  0  0  0  0  0  0  0  0
    0.5230   -1.9520    0.0000 O   0  0  0  0  0  0  0  0  0  0  0  0
    1.2375   -0.7145    0.0000 C   0  0  0  0  0  0  0  0  0  0  0  0
    1.2375    0.1105    0.0000 O   0  0  0  0  0  0  0  0  0  0  0  0
    1.9520   -1.1270    0.0000 C   0  0  0  0  0  0  0  0  0  0  0  0
    2.6664   -0.7145    0.0000 P   0  0  0  0  0  0  0  0  0  0  0  0
    3.3809   -0.3020    0.0000 O   0  0  0  0  0  0  0  0  0  0  0  0
    3.0789   -1.4289    0.0000 O   0  0  0  0  0  0  0  0  0  0  0  0
    2.2539    0.0000    0.0000 O   0  0  0  0  0  0  0  0  0  0  0  0
  1  2  1  0  0  0  0
  2  3  2  0  0  0  0
  2  4  1  0  0  0  0
  4  5  2  0  0  0  0
  4  6  1  0  0  0  0
  6  7  1  0  0  0  0
  7  8  1  0  0  0  0
  7  9  1  0  0  0  0
  7 10  2  0  0  0  0
M  END
> <DRUGBANK_ID>
DB02522

> <DRUG_GROUPS>
experimental

> <GENERIC_NAME>
Phosphonopyruvate

> <CHEMICAL_FORMULA>
C3H5O6P

> <MOLECULAR_WEIGHT>
168.042

> <EXACT_MASS>
167.982374404

> <IUPAC_NAME>
2-oxo-3-phosphonopropanoic acid

> <IUPAC_TRADITIONAL_NAME>
phosphonopyruvate

> <INCHI_IDENTIFIER>
InChI=1S/C3H5O6P/c4-2(3(5)6)1-10(7,8)9/h1H2,(H,5,6)(H2,7,8,9)

> <INCHI_KEY>
InChIKey=CHDDAVCOAOFSLD-UHFFFAOYSA-N

> <SMILES>
OC(=O)C(=O)CP(O)(O)=O

> <JCHEM_ACCEPTOR_COUNT>
6

> <JCHEM_DONOR_COUNT>
3

> <JCHEM_ACIDIC_PKA>
1.64

> <JCHEM_BASIC_PKA>
-10

> <JCHEM_PHYSIOLOGICAL_CHARGE>
-2

> <ALOGPS_LOGP>
-1.9

> <JCHEM_LOGP>
-1.3

> <ALOGPS_LOGS>
-0.95

> <JCHEM_POLARIZABILITY>
11.91

> <JCHEM_POLAR_SURFACE_AREA>
111.9

> <JCHEM_REFRACTIVITY>
28.98

> <JCHEM_ROTATABLE_BOND_COUNT>
3

> <ALOGPS_SOLUBILITY>
1.88e+01 g/l __ 

$$$$
