
  Mrv0541 02231216262D          

 38 40  0  0  1  0            999 V2000
   -1.4289   -2.4750    0.0000 O   0  0  0  0  0  0  0  0  0  0  0  0
   -2.1434   -2.8875    0.0000 C   0  0  0  0  0  0  0  0  0  0  0  0
   -2.1434   -3.7125    0.0000 C   0  0  2  0  0  0  0  0  0  0  0  0
   -1.4289   -4.1250    0.0000 O   0  0  0  0  0  0  0  0  0  0  0  0
   -1.4289   -4.9500    0.0000 C   0  0  2  0  0  0  0  0  0  0  0  0
   -0.7145   -5.3625    0.0000 O   0  0  0  0  0  0  0  0  0  0  0  0
   -2.1434   -5.3625    0.0000 C   0  0  1  0  0  0  0  0  0  0  0  0
   -2.1434   -6.1875    0.0000 O   0  0  0  0  0  0  0  0  0  0  0  0
   -2.8579   -4.9500    0.0000 C   0  0  2  0  0  0  0  0  0  0  0  0
   -3.5724   -5.3625    0.0000 O   0  0  0  0  0  0  0  0  0  0  0  0
   -3.5724   -6.1875    0.0000 C   0  0  1  0  0  0  0  0  0  0  0  0
   -2.8579   -6.6000    0.0000 O   0  0  0  0  0  0  0  0  0  0  0  0
   -2.8579   -7.4250    0.0000 C   0  0  1  0  0  0  0  0  0  0  0  0
   -2.1434   -7.8375    0.0000 C   0  0  0  0  0  0  0  0  0  0  0  0
   -2.1434   -8.6625    0.0000 O   0  0  0  0  0  0  0  0  0  0  0  0
   -3.5724   -7.8375    0.0000 C   0  0  2  0  0  0  0  0  0  0  0  0
   -3.5724   -8.6625    0.0000 O   0  0  0  0  0  0  0  0  0  0  0  0
   -4.2868   -7.4250    0.0000 C   0  0  1  0  0  0  0  0  0  0  0  0
   -5.0013   -7.8375    0.0000 O   0  0  0  0  0  0  0  0  0  0  0  0
   -5.0013   -8.6625    0.0000 C   0  0  1  0  0  0  0  0  0  0  0  0
   -4.2868   -9.0750    0.0000 O   0  0  0  0  0  0  0  0  0  0  0  0
   -4.2868   -9.9000    0.0000 C   0  0  1  0  0  0  0  0  0  0  0  0
   -3.5724  -10.3125    0.0000 C   0  0  0  0  0  0  0  0  0  0  0  0
   -3.5724  -11.1375    0.0000 O   0  0  0  0  0  0  0  0  0  0  0  0
   -4.2868  -11.5500    0.0000 P   0  0  0  0  0  0  0  0  0  0  0  0
   -3.8743  -12.2645    0.0000 O   0  0  0  0  0  0  0  0  0  0  0  0
   -5.0013  -11.9625    0.0000 O   0  0  0  0  0  0  0  0  0  0  0  0
   -4.6993  -10.8355    0.0000 O   0  0  0  0  0  0  0  0  0  0  0  0
   -5.0013  -10.3125    0.0000 C   0  0  2  0  0  0  0  0  0  0  0  0
   -5.0013  -11.1375    0.0000 O   0  0  0  0  0  0  0  0  0  0  0  0
   -5.7158   -9.9000    0.0000 C   0  0  1  0  0  0  0  0  0  0  0  0
   -6.4302  -10.3125    0.0000 O   0  0  0  0  0  0  0  0  0  0  0  0
   -5.7158   -9.0750    0.0000 C   0  0  2  0  0  0  0  0  0  0  0  0
   -6.4302   -8.6625    0.0000 O   0  0  0  0  0  0  0  0  0  0  0  0
   -4.2868   -6.6000    0.0000 C   0  0  2  0  0  0  0  0  0  0  0  0
   -5.0013   -6.1875    0.0000 O   0  0  0  0  0  0  0  0  0  0  0  0
   -2.8579   -4.1250    0.0000 C   0  0  1  0  0  0  0  0  0  0  0  0
   -3.5724   -3.7125    0.0000 O   0  0  0  0  0  0  0  0  0  0  0  0
  1  2  1  0  0  0  0
  3  2  1  6  0  0  0
  3  4  1  0  0  0  0
  4  5  1  0  0  0  0
  5  6  1  6  0  0  0
  5  7  1  0  0  0  0
  7  8  1  1  0  0  0
  7  9  1  0  0  0  0
  9 10  1  6  0  0  0
 11 10  1  1  0  0  0
 11 12  1  0  0  0  0
 12 13  1  0  0  0  0
 13 14  1  1  0  0  0
 14 15  1  0  0  0  0
 13 16  1  0  0  0  0
 16 17  1  6  0  0  0
 16 18  1  0  0  0  0
 18 19  1  1  0  0  0
 20 19  1  1  0  0  0
 20 21  1  0  0  0  0
 21 22  1  0  0  0  0
 22 23  1  1  0  0  0
 23 24  1  0  0  0  0
 24 25  1  0  0  0  0
 25 26  1  0  0  0  0
 25 27  1  0  0  0  0
 25 28  2  0  0  0  0
 22 29  1  0  0  0  0
 29 30  1  6  0  0  0
 29 31  1  0  0  0  0
 31 32  1  1  0  0  0
 31 33  1  0  0  0  0
 20 33  1  0  0  0  0
 33 34  1  6  0  0  0
 18 35  1  0  0  0  0
 11 35  1  0  0  0  0
 35 36  1  6  0  0  0
  9 37  1  0  0  0  0
  3 37  1  0  0  0  0
 37 38  1  1  0  0  0
M  END
> <DRUGBANK_ID>
DB02755

> <DRUG_GROUPS>
experimental

> <GENERIC_NAME>
1-3 Sugar Ring of Pentamannosyl 6-Phosphate

> <CHEMICAL_FORMULA>
C18H33O19P

> <MOLECULAR_WEIGHT>
584.417

> <EXACT_MASS>
584.135365386

> <IUPAC_NAME>
{[(2S,3R,4R,5S,6R)-6-{[(2S,3S,4R,5S,6R)-3,5-dihydroxy-2-(hydroxymethyl)-6-{[(2S,3S,4R,5S,6S)-2,3,5-trihydroxy-6-(hydroxymethyl)oxan-4-yl]oxy}oxan-4-yl]oxy}-3,4,5-trihydroxyoxan-2-yl]methoxy}phosphonic acid

> <IUPAC_TRADITIONAL_NAME>
[(2S,3R,4R,5S,6R)-6-{[(2S,3S,4R,5S,6R)-3,5-dihydroxy-2-(hydroxymethyl)-6-{[(2S,3S,4R,5S,6S)-2,3,5-trihydroxy-6-(hydroxymethyl)oxan-4-yl]oxy}oxan-4-yl]oxy}-3,4,5-trihydroxyoxan-2-yl]methoxyphosphonic acid

> <INCHI_IDENTIFIER>
InChI=1S/C18H33O19P/c19-1-4-8(22)14(12(26)16(28)33-4)36-18-13(27)15(9(23)5(2-20)34-18)37-17-11(25)10(24)7(21)6(35-17)3-32-38(29,30)31/h4-28H,1-3H2,(H2,29,30,31)/t4-,5-,6-,7-,8-,9-,10+,11-,12-,13-,14+,15+,16-,17+,18+/m0/s1

> <INCHI_KEY>
InChIKey=HDQMHAJOIVYOIP-QPBMUXFQSA-N

> <SMILES>
OC[C@@H]1O[C@H](O)[C@@H](O)[C@H](O[C@H]2O[C@@H](CO)[C@H](O)[C@@H](O[C@H]3O[C@@H](COP(O)(O)=O)[C@H](O)[C@@H](O)[C@@H]3O)[C@@H]2O)[C@H]1O

> <JCHEM_ACCEPTOR_COUNT>
18

> <JCHEM_DONOR_COUNT>
12

> <JCHEM_ACIDIC_PKA>
1.22

> <JCHEM_BASIC_PKA>
-3.7

> <JCHEM_PHYSIOLOGICAL_CHARGE>
-2

> <ALOGPS_LOGP>
-2.4

> <JCHEM_LOGP>
-6.6

> <ALOGPS_LOGS>
-1.1

> <JCHEM_POLARIZABILITY>
51.78

> <JCHEM_POLAR_SURFACE_AREA>
315.21

> <JCHEM_REFRACTIVITY>
111.62

> <JCHEM_ROTATABLE_BOND_COUNT>
9

> <ALOGPS_SOLUBILITY>
5.08e+01 g/l __ 

$$$$
