
  Mrv0541 02231216122D          

 48 51  0  0  1  0            999 V2000
   -0.5463    3.0908    0.0000 C   0  0  0  0  0  0  0  0  0  0  0  0
   -0.5463    2.2658    0.0000 O   0  0  0  0  0  0  0  0  0  0  0  0
    0.1681    1.8533    0.0000 C   0  0  0  0  0  0  0  0  0  0  0  0
    0.8826    2.2658    0.0000 O   0  0  0  0  0  0  0  0  0  0  0  0
    0.1681    1.0283    0.0000 C   0  0  0  0  0  0  0  0  0  0  0  0
    0.8826    0.6158    0.0000 C   0  0  0  0  0  0  0  0  0  0  0  0
    0.8826   -0.2092    0.0000 C   0  0  0  0  0  0  0  0  0  0  0  0
    1.5971   -0.6217    0.0000 C   0  0  0  0  0  0  0  0  0  0  0  0
    1.5971   -1.4467    0.0000 C   0  0  1  0  0  0  0  0  0  0  0  0
    0.8826   -1.8592    0.0000 N   0  0  0  0  0  0  0  0  0  0  0  0
    0.8826   -2.6842    0.0000 C   0  0  0  0  0  0  0  0  0  0  0  0
    1.5971   -3.0967    0.0000 C   0  0  0  0  0  0  0  0  0  0  0  0
    0.1681   -3.0967    0.0000 O   0  0  0  0  0  0  0  0  0  0  0  0
    2.3116   -1.8592    0.0000 C   0  0  0  0  0  0  0  0  0  0  0  0
    3.0260   -1.4467    0.0000 O   0  0  0  0  0  0  0  0  0  0  0  0
    2.3116   -2.6842    0.0000 N   0  0  0  0  0  0  0  0  0  0  0  0
    3.0260   -3.0967    0.0000 C   0  0  2  0  0  0  0  0  0  0  0  0
    3.7077   -2.6319    0.0000 C   0  0  0  0  0  0  0  0  0  0  0  0
    4.4960   -2.8751    0.0000 C   0  0  0  0  0  0  0  0  0  0  0  0
    4.7974   -3.6431    0.0000 C   0  0  0  0  0  0  0  0  0  0  0  0
    4.3849   -4.3575    0.0000 C   0  0  0  0  0  0  0  0  0  0  0  0
    3.5691   -4.4805    0.0000 N   0  0  0  0  0  0  0  0  0  0  0  0
    3.3260   -5.2688    0.0000 C   0  0  0  0  0  0  0  0  0  0  0  0
    3.8871   -5.8736    0.0000 C   0  0  0  0  0  0  0  0  0  0  0  0
    4.6914   -5.6900    0.0000 C   0  0  0  0  0  0  0  0  0  0  0  0
    5.2526   -6.2948    0.0000 C   0  0  0  0  0  0  0  0  0  0  0  0
    5.0094   -7.0831    0.0000 C   0  0  0  0  0  0  0  0  0  0  0  0
    4.2051   -7.2667    0.0000 C   0  0  0  0  0  0  0  0  0  0  0  0
    3.6439   -6.6620    0.0000 C   0  0  0  0  0  0  0  0  0  0  0  0
    5.5705   -7.6879    0.0000 C   0  0  0  0  0  0  0  0  0  0  0  0
    6.3749   -7.5043    0.0000 C   0  0  0  0  0  0  0  0  0  0  0  0
    6.9360   -8.1091    0.0000 C   0  0  0  0  0  0  0  0  0  0  0  0
    6.6928   -8.8974    0.0000 C   0  0  0  0  0  0  0  0  0  0  0  0
    5.8885   -9.0810    0.0000 C   0  0  0  0  0  0  0  0  0  0  0  0
    5.3274   -8.4763    0.0000 C   0  0  0  0  0  0  0  0  0  0  0  0
    2.9644   -3.9193    0.0000 C   0  0  0  0  0  0  0  0  0  0  0  0
    2.1964   -4.2208    0.0000 O   0  0  0  0  0  0  0  0  0  0  0  0
    0.1681   -0.6217    0.0000 C   0  0  0  0  0  0  0  0  0  0  0  0
   -0.5463   -0.2092    0.0000 C   0  0  0  0  0  0  0  0  0  0  0  0
   -0.5463    0.6158    0.0000 C   0  0  0  0  0  0  0  0  0  0  0  0
   -1.2608    1.0283    0.0000 C   0  0  0  0  0  0  0  0  0  0  0  0
   -0.8483    1.7428    0.0000 F   0  0  0  0  0  0  0  0  0  0  0  0
   -1.9753    1.4408    0.0000 C   0  0  0  0  0  0  0  0  0  0  0  0
   -2.6897    1.0283    0.0000 O   0  0  0  0  0  0  0  0  0  0  0  0
   -1.9753    2.2658    0.0000 O   0  0  0  0  0  0  0  0  0  0  0  0
   -1.6733    0.3139    0.0000 C   0  0  0  0  0  0  0  0  0  0  0  0
   -2.4983    0.3139    0.0000 O   0  0  0  0  0  0  0  0  0  0  0  0
   -1.2608   -0.4006    0.0000 O   0  0  0  0  0  0  0  0  0  0  0  0
  1  2  1  0  0  0  0
  2  3  1  0  0  0  0
  3  4  2  0  0  0  0
  3  5  1  0  0  0  0
  5  6  2  0  0  0  0
  6  7  1  0  0  0  0
  7  8  1  0  0  0  0
  8  9  1  0  0  0  0
  9 10  1  6  0  0  0
 10 11  1  0  0  0  0
 11 12  1  0  0  0  0
 11 13  2  0  0  0  0
  9 14  1  0  0  0  0
 14 15  2  0  0  0  0
 14 16  1  0  0  0  0
 17 16  1  6  0  0  0
 17 18  1  0  0  0  0
 18 19  1  0  0  0  0
 19 20  1  0  0  0  0
 20 21  1  0  0  0  0
 21 22  1  0  0  0  0
 22 23  1  0  0  0  0
 23 24  1  0  0  0  0
 24 25  2  0  0  0  0
 25 26  1  0  0  0  0
 26 27  2  0  0  0  0
 27 28  1  0  0  0  0
 28 29  2  0  0  0  0
 24 29  1  0  0  0  0
 27 30  1  0  0  0  0
 30 31  2  0  0  0  0
 31 32  1  0  0  0  0
 32 33  2  0  0  0  0
 33 34  1  0  0  0  0
 34 35  2  0  0  0  0
 30 35  1  0  0  0  0
 22 36  1  0  0  0  0
 17 36  1  0  0  0  0
 36 37  2  0  0  0  0
  7 38  2  0  0  0  0
 38 39  1  0  0  0  0
 39 40  2  0  0  0  0
  5 40  1  0  0  0  0
 40 41  1  0  0  0  0
 41 42  1  0  0  0  0
 41 43  1  0  0  0  0
 43 44  1  0  0  0  0
 43 45  2  0  0  0  0
 41 46  1  0  0  0  0
 46 47  1  0  0  0  0
 46 48  2  0  0  0  0
M  END
> <DRUGBANK_ID>
DB02432

> <DRUG_GROUPS>
experimental

> <GENERIC_NAME>
RU90395

> <CHEMICAL_FORMULA>
C35H36FN3O9

> <MOLECULAR_WEIGHT>
661.6734

> <EXACT_MASS>
661.24355797

> <IUPAC_NAME>
2-{4-[(2R)-2-acetamido-2-{[(3R)-2-oxo-1-[(4-phenylphenyl)methyl]azepan-3-yl]carbamoyl}ethyl]-2-(methoxycarbonyl)phenyl}-2-fluoropropanedioic acid

> <IUPAC_TRADITIONAL_NAME>
2-{4-[(2R)-2-acetamido-2-{[(3R)-2-oxo-1-[(4-phenylphenyl)methyl]azepan-3-yl]carbamoyl}ethyl]-2-(methoxycarbonyl)phenyl}-2-fluoropropanedioic acid

> <INCHI_IDENTIFIER>
InChI=1S/C35H36FN3O9/c1-21(40)37-29(19-23-13-16-27(26(18-23)32(43)48-2)35(36,33(44)45)34(46)47)30(41)38-28-10-6-7-17-39(31(28)42)20-22-11-14-25(15-12-22)24-8-4-3-5-9-24/h3-5,8-9,11-16,18,28-29H,6-7,10,17,19-20H2,1-2H3,(H,37,40)(H,38,41)(H,44,45)(H,46,47)/t28-,29-/m1/s1

> <INCHI_KEY>
InChIKey=RLLAUERCSKPFGD-FQLXRVMXSA-N

> <SMILES>
COC(=O)C1=CC(C[C@@H](NC(C)=O)C(=O)N[C@@H]2CCCCN(CC3=CC=C(C=C3)C3=CC=CC=C3)C2=O)=CC=C1C(F)(C(O)=O)C(O)=O

> <JCHEM_ACCEPTOR_COUNT>
8

> <JCHEM_DONOR_COUNT>
4

> <JCHEM_ACIDIC_PKA>
2.25

> <JCHEM_BASIC_PKA>
-1.4

> <JCHEM_PHYSIOLOGICAL_CHARGE>
-2

> <ALOGPS_LOGP>
2.94

> <JCHEM_LOGP>
3.54

> <ALOGPS_LOGS>
-6.1

> <JCHEM_POLARIZABILITY>
66.89

> <JCHEM_POLAR_SURFACE_AREA>
179.41

> <JCHEM_REFRACTIVITY>
169.79

> <JCHEM_ROTATABLE_BOND_COUNT>
13

> <ALOGPS_SOLUBILITY>
5.55e-04 g/l __ 

$$$$
