
  Mrv0541 02231216282D          

 31 33  0  0  1  0            999 V2000
   -3.8649   -1.2685    0.0000 C   0  0  0  0  0  0  0  0  0  0  0  0
   -3.1048   -1.5894    0.0000 C   0  0  0  0  0  0  0  0  0  0  0  0
   -3.0028   -2.4081    0.0000 O   0  0  0  0  0  0  0  0  0  0  0  0
   -2.4469   -1.0917    0.0000 N   0  0  0  0  0  0  0  0  0  0  0  0
   -2.4628   -0.2669    0.0000 C   0  0  0  0  0  0  0  0  0  0  0  0
   -1.6833    0.0032    0.0000 C   0  0  1  0  0  0  0  0  0  0  0  0
   -1.4435    0.7926    0.0000 O   0  0  0  0  0  0  0  0  0  0  0  0
   -1.1855   -0.6548    0.0000 C   0  0  0  0  0  0  0  0  0  0  0  0
   -1.6575   -1.3315    0.0000 C   0  0  1  0  0  0  0  0  0  0  0  0
   -1.3874   -2.1110    0.0000 C   0  0  0  0  0  0  0  0  0  0  0  0
   -0.5773   -2.2669    0.0000 O   0  0  0  0  0  0  0  0  0  0  0  0
   -1.9275   -2.7346    0.0000 N   0  0  0  0  0  0  0  0  0  0  0  0
   -1.6575   -3.5142    0.0000 C   0  0  2  0  0  0  0  0  0  0  0  0
   -0.8474   -3.6701    0.0000 C   0  0  0  0  0  0  0  0  0  0  0  0
   -0.3073   -3.0465    0.0000 C   0  0  0  0  0  0  0  0  0  0  0  0
    0.5029   -3.2024    0.0000 C   0  0  0  0  0  0  0  0  0  0  0  0
    1.0430   -2.5787    0.0000 N   0  0  0  0  0  0  0  0  0  0  0  0
    1.8531   -2.7346    0.0000 C   0  0  0  0  0  0  0  0  0  0  0  0
    2.1231   -3.5142    0.0000 N   0  0  0  0  0  0  0  0  0  0  0  0
    2.3932   -2.1110    0.0000 N   0  0  0  0  0  0  0  0  0  0  0  0
   -2.1976   -4.1378    0.0000 C   0  0  0  0  0  0  0  0  0  0  0  0
   -3.0077   -3.9819    0.0000 O   0  0  0  0  0  0  0  0  0  0  0  0
   -1.9275   -4.9174    0.0000 C   0  0  0  0  0  0  0  0  0  0  0  0
   -2.3995   -5.5941    0.0000 N   0  0  0  0  0  0  0  0  0  0  0  0
   -1.9018   -6.2520    0.0000 C   0  0  0  0  0  0  0  0  0  0  0  0
   -1.1222   -5.9820    0.0000 C   0  0  0  0  0  0  0  0  0  0  0  0
   -1.1381   -5.1571    0.0000 S   0  0  0  0  0  0  0  0  0  0  0  0
   -0.4986   -6.5221    0.0000 C   0  0  0  0  0  0  0  0  0  0  0  0
   -0.6545   -7.3322    0.0000 C   0  0  0  0  0  0  0  0  0  0  0  0
   -1.4340   -7.6022    0.0000 C   0  0  0  0  0  0  0  0  0  0  0  0
   -2.0577   -7.0622    0.0000 C   0  0  0  0  0  0  0  0  0  0  0  0
  1  2  1  0  0  0  0
  2  3  2  0  0  0  0
  2  4  1  0  0  0  0
  4  5  1  0  0  0  0
  5  6  1  0  0  0  0
  6  7  1  1  0  0  0
  6  8  1  0  0  0  0
  8  9  1  0  0  0  0
  4  9  1  0  0  0  0
  9 10  1  1  0  0  0
 10 11  2  0  0  0  0
 10 12  1  0  0  0  0
 13 12  1  6  0  0  0
 13 14  1  0  0  0  0
 14 15  1  0  0  0  0
 15 16  1  0  0  0  0
 16 17  1  0  0  0  0
 17 18  1  0  0  0  0
 18 19  1  0  0  0  0
 18 20  2  0  0  0  0
 13 21  1  0  0  0  0
 21 22  2  0  0  0  0
 21 23  1  0  0  0  0
 23 24  2  0  0  0  0
 24 25  1  0  0  0  0
 25 26  2  0  0  0  0
 26 27  1  0  0  0  0
 23 27  1  0  0  0  0
 26 28  1  0  0  0  0
 28 29  2  0  0  0  0
 29 30  1  0  0  0  0
 30 31  2  0  0  0  0
 25 31  1  0  0  0  0
M  END
> <DRUGBANK_ID>
DB02812

> <DRUG_GROUPS>
experimental

> <GENERIC_NAME>
(2s,4r)-1-Acetyl-N-[(1s)-4-[(Aminoiminomethyl)Amino]-1-(2-Benzothiazolylcarbonyl)Butyl]-4-Hydroxy-2-Pyrrolidinecarboxamide

> <CHEMICAL_FORMULA>
C20H26N6O4S

> <MOLECULAR_WEIGHT>
446.523

> <EXACT_MASS>
446.17362404

> <IUPAC_NAME>
(2S,4S)-1-acetyl-N-[(2R)-1-(1,3-benzothiazol-2-yl)-5-carbamimidamido-1-oxopentan-2-yl]-4-hydroxypyrrolidine-2-carboxamide

> <IUPAC_TRADITIONAL_NAME>
(2S,4S)-1-acetyl-N-[(2R)-1-(1,3-benzothiazol-2-yl)-5-carbamimidamido-1-oxopentan-2-yl]-4-hydroxypyrrolidine-2-carboxamide

> <INCHI_IDENTIFIER>
InChI=1S/C20H26N6O4S/c1-11(27)26-10-12(28)9-15(26)18(30)24-14(6-4-8-23-20(21)22)17(29)19-25-13-5-2-3-7-16(13)31-19/h2-3,5,7,12,14-15,28H,4,6,8-10H2,1H3,(H,24,30)(H4,21,22,23)/t12-,14+,15-/m0/s1

> <INCHI_KEY>
InChIKey=VXDAVYUFYPFGDX-CFVMTHIKSA-N

> <SMILES>
CC(=O)N1C[C@@H](O)C[C@H]1C(=O)N[C@H](CCCNC(N)=N)C(=O)C1=NC2=C(S1)C=CC=C2

> <JCHEM_ACCEPTOR_COUNT>
8

> <JCHEM_DONOR_COUNT>
5

> <JCHEM_ACIDIC_PKA>
12.37

> <JCHEM_BASIC_PKA>
11.72

> <JCHEM_PHYSIOLOGICAL_CHARGE>
1

> <ALOGPS_LOGP>
0.1

> <JCHEM_LOGP>
-1.1

> <ALOGPS_LOGS>
-3.5

> <JCHEM_POLARIZABILITY>
46.65

> <JCHEM_POLAR_SURFACE_AREA>
161.5

> <JCHEM_REFRACTIVITY>
124.04

> <JCHEM_ROTATABLE_BOND_COUNT>
8

> <ALOGPS_SOLUBILITY>
1.34e-01 g/l __ 

$$$$
