
  Mrv0541 02231216162D          

 28 29  0  0  1  0            999 V2000
    4.2868    0.8250    0.0000 C   0  0  0  0  0  0  0  0  0  0  0  0
    4.2868    0.0000    0.0000 C   0  0  0  0  0  0  0  0  0  0  0  0
    5.0013   -0.4125    0.0000 C   0  0  0  0  0  0  0  0  0  0  0  0
    5.0013   -1.2375    0.0000 C   0  0  0  0  0  0  0  0  0  0  0  0
    4.2868   -1.6500    0.0000 C   0  0  0  0  0  0  0  0  0  0  0  0
    4.2868   -2.4750    0.0000 O   0  0  0  0  0  0  0  0  0  0  0  0
    3.5724   -2.8875    0.0000 C   0  0  0  0  0  0  0  0  0  0  0  0
    3.5724   -3.7125    0.0000 C   0  0  0  0  0  0  0  0  0  0  0  0
    2.8579   -4.1250    0.0000 N   0  0  0  0  0  0  0  0  0  0  0  0
    2.1434   -3.7125    0.0000 C   0  0  0  0  0  0  0  0  0  0  0  0
    1.4289   -4.1250    0.0000 C   0  0  0  0  0  0  0  0  0  0  0  0
    0.7145   -3.7125    0.0000 C   0  0  0  0  0  0  0  0  0  0  0  0
    0.0000   -4.1250    0.0000 C   0  0  0  0  0  0  0  0  0  0  0  0
    0.0000   -4.9500    0.0000 C   0  0  2  0  0  0  0  0  0  0  0  0
    0.7145   -5.3625    0.0000 N   0  0  0  0  0  0  0  0  0  0  0  0
   -0.7145   -5.3625    0.0000 C   0  0  0  0  0  0  0  0  0  0  0  0
   -0.7145   -6.1875    0.0000 O   0  0  0  0  0  0  0  0  0  0  0  0
   -1.4289   -4.9500    0.0000 O   0  0  0  0  0  0  0  0  0  0  0  0
    0.7145   -2.8875    0.0000 C   0  0  0  0  0  0  0  0  0  0  0  0
    0.0000   -2.4750    0.0000 O   0  0  0  0  0  0  0  0  0  0  0  0
    1.4289   -2.4750    0.0000 C   0  0  0  0  0  0  0  0  0  0  0  0
    2.1434   -2.8875    0.0000 C   0  0  0  0  0  0  0  0  0  0  0  0
    2.8579   -2.4750    0.0000 O   0  0  0  0  0  0  0  0  0  0  0  0
    4.2868   -4.1250    0.0000 C   0  0  0  0  0  0  0  0  0  0  0  0
    4.2868   -4.9500    0.0000 C   0  0  0  0  0  0  0  0  0  0  0  0
    5.0013   -5.3625    0.0000 O   0  0  0  0  0  0  0  0  0  0  0  0
    3.5724   -1.2375    0.0000 C   0  0  0  0  0  0  0  0  0  0  0  0
    3.5724   -0.4125    0.0000 C   0  0  0  0  0  0  0  0  0  0  0  0
  1  2  1  0  0  0  0
  2  3  2  0  0  0  0
  3  4  1  0  0  0  0
  4  5  2  0  0  0  0
  5  6  1  0  0  0  0
  6  7  1  0  0  0  0
  7  8  1  0  0  0  0
  8  9  1  0  0  0  0
  9 10  1  0  0  0  0
 10 11  2  0  0  0  0
 11 12  1  0  0  0  0
 12 13  1  0  0  0  0
 13 14  1  0  0  0  0
 14 15  1  6  0  0  0
 14 16  1  0  0  0  0
 16 17  1  0  0  0  0
 16 18  2  0  0  0  0
 12 19  2  0  0  0  0
 19 20  1  0  0  0  0
 19 21  1  0  0  0  0
 21 22  2  0  0  0  0
 10 22  1  0  0  0  0
 22 23  1  0  0  0  0
  8 24  2  0  0  0  0
 24 25  1  0  0  0  0
 25 26  2  0  0  0  0
  5 27  1  0  0  0  0
 27 28  2  0  0  0  0
  2 28  1  0  0  0  0
M  END
> <DRUGBANK_ID>
DB02537

> <DRUG_GROUPS>
experimental

> <GENERIC_NAME>
2-Hydroxy-5-({1-[(4-Methylphenoxy)Methyl]-3-Oxoprop-1-Enyl}Amino)-L-Tyrosine

> <CHEMICAL_FORMULA>
C20H22N2O6

> <MOLECULAR_WEIGHT>
386.3985

> <EXACT_MASS>
386.147786446

> <IUPAC_NAME>
(2S)-2-amino-3-(2,4-dihydroxy-5-{[(2Z)-1-(4-methylphenoxy)-4-oxobut-2-en-2-yl]amino}phenyl)propanoic acid

> <IUPAC_TRADITIONAL_NAME>
(2S)-2-amino-3-(2,4-dihydroxy-5-{[(2Z)-1-(4-methylphenoxy)-4-oxobut-2-en-2-yl]amino}phenyl)propanoic acid

> <INCHI_IDENTIFIER>
InChI=1S/C20H22N2O6/c1-12-2-4-15(5-3-12)28-11-14(6-7-23)22-17-9-13(8-16(21)20(26)27)18(24)10-19(17)25/h2-7,9-10,16,22,24-25H,8,11,21H2,1H3,(H,26,27)/b14-6-/t16-/m0/s1

> <INCHI_KEY>
InChIKey=FSNBWEOGSXUNGF-VCXBKZMZSA-N

> <SMILES>
CC1=CC=C(OC\C(NC2=CC(C[C@H](N)C(O)=O)=C(O)C=C2O)=C\C=O)C=C1

> <JCHEM_ACCEPTOR_COUNT>
8

> <JCHEM_DONOR_COUNT>
5

> <JCHEM_ACIDIC_PKA>
1.69

> <JCHEM_BASIC_PKA>
8.84

> <JCHEM_PHYSIOLOGICAL_CHARGE>
0

> <ALOGPS_LOGP>
-0.37

> <JCHEM_LOGP>
-0.67

> <ALOGPS_LOGS>
-4

> <JCHEM_POLARIZABILITY>
40.47

> <JCHEM_POLAR_SURFACE_AREA>
142.11

> <JCHEM_REFRACTIVITY>
106.02

> <JCHEM_ROTATABLE_BOND_COUNT>
9

> <ALOGPS_SOLUBILITY>
3.42e-02 g/l __ 

$$$$
