
  Mrv0541 02231216062D          

 59 58  0  0  1  0            999 V2000
   18.3711   11.4315    0.0000 C   0  0  0  0  0  0  0  0  0  0  0  0
   19.0855   11.8440    0.0000 C   0  0  0  0  0  0  0  0  0  0  0  0
   19.0855   12.6690    0.0000 C   0  0  0  0  0  0  0  0  0  0  0  0
   19.8000   11.4315    0.0000 C   0  0  0  0  0  0  0  0  0  0  0  0
   20.5145   11.8440    0.0000 C   0  0  0  0  0  0  0  0  0  0  0  0
   21.2289   11.4315    0.0000 C   0  0  0  0  0  0  0  0  0  0  0  0
   21.9434   11.8440    0.0000 C   0  0  2  0  0  0  0  0  0  0  0  0
   21.9434   12.6690    0.0000 C   0  0  0  0  0  0  0  0  0  0  0  0
   22.6579   11.4315    0.0000 C   0  0  0  0  0  0  0  0  0  0  0  0
   23.3724   11.8440    0.0000 C   0  0  0  0  0  0  0  0  0  0  0  0
   24.0868   11.4315    0.0000 C   0  0  0  0  0  0  0  0  0  0  0  0
   24.8013   11.8440    0.0000 C   0  0  1  0  0  0  0  0  0  0  0  0
   24.8013   12.6690    0.0000 C   0  0  0  0  0  0  0  0  0  0  0  0
   25.5158   11.4315    0.0000 C   0  0  0  0  0  0  0  0  0  0  0  0
   26.2302   11.8440    0.0000 C   0  0  0  0  0  0  0  0  0  0  0  0
   26.9447   11.4315    0.0000 C   0  0  0  0  0  0  0  0  0  0  0  0
   27.6592   11.8440    0.0000 C   0  0  2  0  0  0  0  0  0  0  0  0
   27.6592   12.6690    0.0000 C   0  0  0  0  0  0  0  0  0  0  0  0
   28.3737   11.4315    0.0000 C   0  0  0  0  0  0  0  0  0  0  0  0
   29.0881   11.8440    0.0000 C   0  0  0  0  0  0  0  0  0  0  0  0
   29.8026   11.4315    0.0000 O   0  0  0  0  0  0  0  0  0  0  0  0
   30.5171   11.8440    0.0000 C   0  0  0  0  0  0  0  0  0  0  0  0
   31.2315   11.4315    0.0000 C   0  0  2  0  0  0  0  0  0  0  0  0
   31.2315   10.6065    0.0000 C   0  0  0  0  0  0  0  0  0  0  0  0
   30.5171   10.1940    0.0000 O   0  0  0  0  0  0  0  0  0  0  0  0
   30.5171    9.3690    0.0000 P   0  0  2  0  0  0  0  0  0  0  0  0
   31.3421    9.3690    0.0000 O   0  5  0  0  0  0  0  0  0  0  0  0
   29.6921    9.3690    0.0000 O   0  0  0  0  0  0  0  0  0  0  0  0
   30.5171    8.5440    0.0000 O   0  0  0  0  0  0  0  0  0  0  0  0
   29.8026    8.1315    0.0000 C   0  0  0  0  0  0  0  0  0  0  0  0
   29.8026    7.3065    0.0000 C   0  0  1  0  0  0  0  0  0  0  0  0
   30.5171    6.8940    0.0000 O   0  0  0  0  0  0  0  0  0  0  0  0
   29.0881    6.8940    0.0000 C   0  0  0  0  0  0  0  0  0  0  0  0
   29.0881    6.0690    0.0000 O   0  0  0  0  0  0  0  0  0  0  0  0
   28.3737    5.6565    0.0000 P   0  0  2  0  0  0  0  0  0  0  0  0
   27.9612    6.3710    0.0000 O   0  0  0  0  0  0  0  0  0  0  0  0
   28.7862    4.9421    0.0000 O   0  5  0  0  0  0  0  0  0  0  0  0
   27.6592    5.2440    0.0000 O   0  0  0  0  0  0  0  0  0  0  0  0
   31.9460   11.8440    0.0000 O   0  0  0  0  0  0  0  0  0  0  0  0
   32.6605   11.4315    0.0000 C   0  0  0  0  0  0  0  0  0  0  0  0
   33.3749   11.8440    0.0000 C   0  0  0  0  0  0  0  0  0  0  0  0
   34.0894   11.4315    0.0000 C   0  0  2  0  0  0  0  0  0  0  0  0
   34.0894   10.6065    0.0000 C   0  0  0  0  0  0  0  0  0  0  0  0
   34.8039   11.8440    0.0000 C   0  0  0  0  0  0  0  0  0  0  0  0
   35.5184   11.4315    0.0000 C   0  0  0  0  0  0  0  0  0  0  0  0
   36.2328   11.8440    0.0000 C   0  0  0  0  0  0  0  0  0  0  0  0
   36.9473   11.4315    0.0000 C   0  0  1  0  0  0  0  0  0  0  0  0
   36.9473   10.6065    0.0000 C   0  0  0  0  0  0  0  0  0  0  0  0
   37.6618   11.8440    0.0000 C   0  0  0  0  0  0  0  0  0  0  0  0
   38.3762   11.4315    0.0000 C   0  0  0  0  0  0  0  0  0  0  0  0
   39.0907   11.8440    0.0000 C   0  0  0  0  0  0  0  0  0  0  0  0
   39.8052   11.4315    0.0000 C   0  0  2  0  0  0  0  0  0  0  0  0
   39.8052   10.6065    0.0000 C   0  0  0  0  0  0  0  0  0  0  0  0
   40.5197   11.8440    0.0000 C   0  0  0  0  0  0  0  0  0  0  0  0
   41.2341   11.4315    0.0000 C   0  0  0  0  0  0  0  0  0  0  0  0
   41.9486   11.8440    0.0000 C   0  0  0  0  0  0  0  0  0  0  0  0
   42.6631   11.4315    0.0000 C   0  0  0  0  0  0  0  0  0  0  0  0
   43.3775   11.8440    0.0000 C   0  0  0  0  0  0  0  0  0  0  0  0
   42.6631   10.6065    0.0000 C   0  0  0  0  0  0  0  0  0  0  0  0
  1  2  1  0  0  0  0
  2  3  1  0  0  0  0
  2  4  1  0  0  0  0
  4  5  1  0  0  0  0
  5  6  1  0  0  0  0
  6  7  1  0  0  0  0
  7  8  1  6  0  0  0
  7  9  1  0  0  0  0
  9 10  1  0  0  0  0
 10 11  1  0  0  0  0
 11 12  1  0  0  0  0
 12 13  1  1  0  0  0
 12 14  1  0  0  0  0
 14 15  1  0  0  0  0
 15 16  1  0  0  0  0
 16 17  1  0  0  0  0
 17 18  1  6  0  0  0
 17 19  1  0  0  0  0
 19 20  1  0  0  0  0
 20 21  1  0  0  0  0
 21 22  1  0  0  0  0
 22 23  1  0  0  0  0
 23 24  1  0  0  0  0
 24 25  1  0  0  0  0
 26 25  1  1  0  0  0
 26 27  1  6  0  0  0
 26 28  2  0  0  0  0
 26 29  1  0  0  0  0
 29 30  1  0  0  0  0
 30 31  1  0  0  0  0
 31 32  1  1  0  0  0
 31 33  1  0  0  0  0
 33 34  1  0  0  0  0
 34 35  1  0  0  0  0
 35 36  1  1  0  0  0
 35 37  1  1  0  0  0
 35 38  2  0  0  0  0
 23 39  1  1  0  0  0
 39 40  1  0  0  0  0
 40 41  1  0  0  0  0
 41 42  1  0  0  0  0
 42 43  1  1  0  0  0
 42 44  1  0  0  0  0
 44 45  1  0  0  0  0
 45 46  1  0  0  0  0
 46 47  1  0  0  0  0
 47 48  1  6  0  0  0
 47 49  1  0  0  0  0
 49 50  1  0  0  0  0
 50 51  1  0  0  0  0
 51 52  1  0  0  0  0
 52 53  1  1  0  0  0
 52 54  1  0  0  0  0
 54 55  1  0  0  0  0
 55 56  1  0  0  0  0
 56 57  1  0  0  0  0
 57 58  1  0  0  0  0
 57 59  1  0  0  0  0
M  END
> <DRUGBANK_ID>
DB02293

> <DRUG_GROUPS>
experimental

> <GENERIC_NAME>
2,3-Di-O-Phytanly-3-Sn-Glycero-1-Phosphoryl-3'-Sn-Glycerol-1'-Phosphate

> <CHEMICAL_FORMULA>
C46H94O11P2

> <MOLECULAR_WEIGHT>
885.1795

> <EXACT_MASS>
884.627136874

> <IUPAC_NAME>
(3S,7R,11S)-1-[(2R)-3-{[(R)-((2S)-3-(hydrogen phosphonatooxy)-2-hydroxypropyl phosphonato)]oxy}-2-{[(3R,7S,11R)-3,7,11,15-tetramethylhexadecyl]oxy}propoxy]-3,7,11,15-tetramethylhexadecane

> <IUPAC_TRADITIONAL_NAME>
(3S,7R,11S)-1-[(2R)-3-{[(R)-((2S)-3-(hydrogen phosphonatooxy)-2-hydroxypropyl phosphonato)]oxy}-2-{[(3R,7S,11R)-3,7,11,15-tetramethylhexadecyl]oxy}propoxy]-3,7,11,15-tetramethylhexadecane

> <INCHI_IDENTIFIER>
InChI=1S/C46H96O11P2/c1-37(2)17-11-19-39(5)21-13-23-41(7)25-15-27-43(9)29-31-53-35-46(36-57-59(51,52)56-34-45(47)33-55-58(48,49)50)54-32-30-44(10)28-16-26-42(8)24-14-22-40(6)20-12-18-38(3)4/h37-47H,11-36H2,1-10H3,(H,51,52)(H2,48,49,50)/p-2/t39-,40+,41+,42-,43-,44+,45-,46+/m0/s1

> <INCHI_KEY>
InChIKey=TZXJQSKPTCRGCA-UBSVREFJSA-L

> <SMILES>
CC(C)CCC[C@H](C)CCC[C@@H](C)CCC[C@H](C)CCOC[C@H](CO[P@]([O-])(=O)OC[C@@H](O)CO[P@](O)([O-])=O)OCC[C@H](C)CCC[C@@H](C)CCC[C@H](C)CCCC(C)C

> <JCHEM_ACCEPTOR_COUNT>
8

> <JCHEM_DONOR_COUNT>
2

> <JCHEM_ACIDIC_PKA>
1.35

> <JCHEM_BASIC_PKA>
-3.4

> <JCHEM_PHYSIOLOGICAL_CHARGE>
-3

> <ALOGPS_LOGP>
7.77

> <JCHEM_LOGP>
13.87

> <ALOGPS_LOGS>
-6.5

> <JCHEM_POLARIZABILITY>
106.6

> <JCHEM_POLAR_SURFACE_AREA>
166.87

> <JCHEM_REFRACTIVITY>
240.82

> <JCHEM_ROTATABLE_BOND_COUNT>
42

> <ALOGPS_SOLUBILITY>
2.79e-04 g/l __ 

$$$$
