
  Mrv0541 02231216002D          

 41 44  0  0  1  0            999 V2000
   -1.4085   -0.2830    0.0000 C   0  0  0  0  0  0  0  0  0  0  0  0
   -1.4085   -1.1080    0.0000 C   0  0  0  0  0  0  0  0  0  0  0  0
   -0.6941   -1.5205    0.0000 C   0  0  1  0  0  0  0  0  0  0  0  0
    0.0204   -1.1080    0.0000 C   0  0  0  0  0  0  0  0  0  0  0  0
   -0.6941   -2.3455    0.0000 C   0  0  0  0  0  0  0  0  0  0  0  0
    0.0204   -2.7580    0.0000 C   0  0  0  0  0  0  0  0  0  0  0  0
    0.0204   -3.5830    0.0000 C   0  0  0  0  0  0  0  0  0  0  0  0
   -0.6941   -3.9955    0.0000 C   0  0  0  0  0  0  0  0  0  0  0  0
   -1.4085   -3.5830    0.0000 C   0  0  0  0  0  0  0  0  0  0  0  0
   -1.4085   -2.7580    0.0000 C   0  0  0  0  0  0  0  0  0  0  0  0
   -2.1230   -2.3455    0.0000 O   0  0  0  0  0  0  0  0  0  0  0  0
    0.7349   -3.9955    0.0000 C   0  0  0  0  0  0  0  0  0  0  0  0
    1.4493   -3.5830    0.0000 O   0  0  0  0  0  0  0  0  0  0  0  0
    0.7349   -4.8205    0.0000 N   0  0  0  0  0  0  0  0  0  0  0  0
    1.4493   -5.2330    0.0000 C   0  0  1  0  0  0  0  0  0  0  0  0
    2.1310   -4.7683    0.0000 C   0  0  0  0  0  0  0  0  0  0  0  0
    2.9193   -5.0114    0.0000 N   0  0  0  0  0  0  0  0  0  0  0  0
    3.2207   -5.7794    0.0000 C   0  0  0  0  0  0  0  0  0  0  0  0
    2.8082   -6.4939    0.0000 C   0  0  0  0  0  0  0  0  0  0  0  0
    1.9925   -6.6168    0.0000 C   0  0  0  0  0  0  0  0  0  0  0  0
    1.3877   -6.0557    0.0000 C   0  0  1  0  0  0  0  0  0  0  0  0
    0.6197   -6.3571    0.0000 O   0  0  0  0  0  0  0  0  0  0  0  0
    0.4968   -7.1729    0.0000 C   0  0  0  0  0  0  0  0  0  0  0  0
   -0.2712   -7.4743    0.0000 O   0  0  0  0  0  0  0  0  0  0  0  0
    1.1418   -7.6873    0.0000 C   0  0  0  0  0  0  0  0  0  0  0  0
    1.9097   -7.3859    0.0000 C   0  0  0  0  0  0  0  0  0  0  0  0
    2.5547   -7.9002    0.0000 C   0  0  0  0  0  0  0  0  0  0  0  0
    2.4318   -8.7160    0.0000 C   0  0  0  0  0  0  0  0  0  0  0  0
    1.6638   -9.0174    0.0000 C   0  0  0  0  0  0  0  0  0  0  0  0
    1.0188   -8.5030    0.0000 C   0  0  0  0  0  0  0  0  0  0  0  0
    3.0768   -9.2304    0.0000 C   0  0  0  0  0  0  0  0  0  0  0  0
    3.8448   -8.9290    0.0000 O   0  0  0  0  0  0  0  0  0  0  0  0
    2.9538  -10.0462    0.0000 C   0  0  0  0  0  0  0  0  0  0  0  0
    3.5988  -10.5606    0.0000 C   0  0  0  0  0  0  0  0  0  0  0  0
    3.4759  -11.3763    0.0000 C   0  0  0  0  0  0  0  0  0  0  0  0
    4.1209  -11.8907    0.0000 O   0  0  0  0  0  0  0  0  0  0  0  0
    4.8889  -11.5893    0.0000 C   0  0  0  0  0  0  0  0  0  0  0  0
    2.7079  -11.6778    0.0000 C   0  0  0  0  0  0  0  0  0  0  0  0
    2.0629  -11.1634    0.0000 C   0  0  0  0  0  0  0  0  0  0  0  0
    2.1859  -10.3476    0.0000 C   0  0  0  0  0  0  0  0  0  0  0  0
    1.5409   -9.8332    0.0000 O   0  0  0  0  0  0  0  0  0  0  0  0
  1  2  1  0  0  0  0
  2  3  1  0  0  0  0
  3  4  1  1  0  0  0
  3  5  1  0  0  0  0
  5  6  2  0  0  0  0
  6  7  1  0  0  0  0
  7  8  2  0  0  0  0
  8  9  1  0  0  0  0
  9 10  2  0  0  0  0
  5 10  1  0  0  0  0
 10 11  1  0  0  0  0
  7 12  1  0  0  0  0
 12 13  2  0  0  0  0
 12 14  1  0  0  0  0
 15 14  1  1  0  0  0
 15 16  1  0  0  0  0
 16 17  1  0  0  0  0
 17 18  1  0  0  0  0
 18 19  1  0  0  0  0
 19 20  1  0  0  0  0
 20 21  1  0  0  0  0
 15 21  1  0  0  0  0
 21 22  1  1  0  0  0
 22 23  1  0  0  0  0
 23 24  2  0  0  0  0
 23 25  1  0  0  0  0
 25 26  2  0  0  0  0
 26 27  1  0  0  0  0
 27 28  2  0  0  0  0
 28 29  1  0  0  0  0
 29 30  2  0  0  0  0
 25 30  1  0  0  0  0
 28 31  1  0  0  0  0
 31 32  2  0  0  0  0
 31 33  1  0  0  0  0
 33 34  2  0  0  0  0
 34 35  1  0  0  0  0
 35 36  1  0  0  0  0
 36 37  1  0  0  0  0
 35 38  2  0  0  0  0
 38 39  1  0  0  0  0
 39 40  2  0  0  0  0
 33 40  1  0  0  0  0
 40 41  1  0  0  0  0
M  END
> <DRUGBANK_ID>
DB02155

> <DRUG_GROUPS>
experimental

> <GENERIC_NAME>
Balanol Analog 8

> <CHEMICAL_FORMULA>
C32H36N2O7

> <MOLECULAR_WEIGHT>
560.6374

> <EXACT_MASS>
560.252251516

> <IUPAC_NAME>
(3S,4R)-3-({3-[(2R)-butan-2-yl]-4-hydroxybenzene}amido)azepan-4-yl 4-[(2-hydroxy-5-methoxyphenyl)carbonyl]benzoate

> <IUPAC_TRADITIONAL_NAME>
(3S,4R)-3-{3-[(2R)-butan-2-yl]-4-hydroxybenzamido}azepan-4-yl 4-[(2-hydroxy-5-methoxyphenyl)carbonyl]benzoate

> <INCHI_IDENTIFIER>
InChI=1S/C32H36N2O7/c1-4-19(2)24-16-22(11-13-27(24)35)31(38)34-26-18-33-15-5-6-29(26)41-32(39)21-9-7-20(8-10-21)30(37)25-17-23(40-3)12-14-28(25)36/h7-14,16-17,19,26,29,33,35-36H,4-6,15,18H2,1-3H3,(H,34,38)/t19-,26+,29-/m1/s1

> <INCHI_KEY>
InChIKey=XVLMXAUKCDSMMW-WBZRNCBQSA-N

> <SMILES>
CC[C@@H](C)C1=CC(=CC=C1O)C(=O)N[C@H]1CNCCC[C@H]1OC(=O)C1=CC=C(C=C1)C(=O)C1=CC(OC)=CC=C1O

> <JCHEM_ACCEPTOR_COUNT>
7

> <JCHEM_DONOR_COUNT>
4

> <JCHEM_ACIDIC_PKA>
8.4

> <JCHEM_BASIC_PKA>
9.72

> <JCHEM_PHYSIOLOGICAL_CHARGE>
1

> <ALOGPS_LOGP>
4.38

> <JCHEM_LOGP>
4.8

> <ALOGPS_LOGS>
-5.6

> <JCHEM_POLARIZABILITY>
59.59

> <JCHEM_POLAR_SURFACE_AREA>
134.19

> <JCHEM_REFRACTIVITY>
155.55

> <JCHEM_ROTATABLE_BOND_COUNT>
10

> <ALOGPS_SOLUBILITY>
1.36e-03 g/l __ 

$$$$
