
  Mrv0541 02231216002D          

 16 16  0  0  0  0            999 V2000
    2.7283   -0.0897    0.0000 O   0  5  0  0  0  0  0  0  0  0  0  0
    2.0738    0.4125    0.0000 V   0  0  0  0  0  0  0  0  0  0  0  0
    2.7283    0.9147    0.0000 O   0  0  0  0  0  0  0  0  0  0  0  0
    1.7581   -0.3497    0.0000 O   0  0  0  0  0  0  0  0  0  0  0  0
    0.9959   -0.6654    0.0000 V   0  0  0  0  0  0  0  0  0  0  0  0
    1.4981   -1.3199    0.0000 O   0  5  0  0  0  0  0  0  0  0  0  0
    0.4936   -1.3199    0.0000 O   0  0  0  0  0  0  0  0  0  0  0  0
    0.2337   -0.3497    0.0000 O   0  0  0  0  0  0  0  0  0  0  0  0
   -0.0821    0.4125    0.0000 V   0  0  0  0  0  0  0  0  0  0  0  0
   -0.7366   -0.0897    0.0000 O   0  5  0  0  0  0  0  0  0  0  0  0
   -0.7366    0.9147    0.0000 O   0  0  0  0  0  0  0  0  0  0  0  0
    0.2337    1.1747    0.0000 O   0  0  0  0  0  0  0  0  0  0  0  0
    0.9959    1.4904    0.0000 V   0  0  0  0  0  0  0  0  0  0  0  0
    0.4936    2.1449    0.0000 O   0  5  0  0  0  0  0  0  0  0  0  0
    1.4981    2.1449    0.0000 O   0  0  0  0  0  0  0  0  0  0  0  0
    1.7581    1.1747    0.0000 O   0  0  0  0  0  0  0  0  0  0  0  0
  1  2  1  0  0  0  0
  2  3  2  0  0  0  0
  2  4  1  0  0  0  0
  4  5  1  0  0  0  0
  5  6  1  0  0  0  0
  5  7  2  0  0  0  0
  5  8  1  0  0  0  0
  8  9  1  0  0  0  0
  9 10  1  0  0  0  0
  9 11  2  0  0  0  0
  9 12  1  0  0  0  0
 12 13  1  0  0  0  0
 13 14  1  0  0  0  0
 13 15  2  0  0  0  0
 13 16  1  0  0  0  0
  2 16  1  0  0  0  0
M  END
> <DRUGBANK_ID>
DB02147

> <DRUG_GROUPS>
experimental

> <GENERIC_NAME>
Cyclo-Tetrametavanadate

> <CHEMICAL_FORMULA>
O12V4

> <MOLECULAR_WEIGHT>
395.7588

> <EXACT_MASS>
395.714830164

> <IUPAC_NAME>
tetraoxocyclotetravanadoxane-2,4,6,8-tetrakis(olate)

> <IUPAC_TRADITIONAL_NAME>
cyclo-tetrametavanadate

> <INCHI_IDENTIFIER>
InChI=1S/12O.4V/q;;;;;;;;4*-1;;;;

> <INCHI_KEY>
InChIKey=ACTPEXQBEHJTBO-UHFFFAOYSA-N

> <SMILES>
[O-][V]1(=O)O[V]([O-])(=O)O[V]([O-])(=O)O[V]([O-])(=O)O1

> <JCHEM_ACCEPTOR_COUNT>
8

> <JCHEM_DONOR_COUNT>
0

> <JCHEM_ACIDIC_PKA>
11.4

> <JCHEM_PHYSIOLOGICAL_CHARGE>
0

> <JCHEM_LOGP>
-2.5

> <JCHEM_POLARIZABILITY>
20.01

> <JCHEM_POLAR_SURFACE_AREA>
197.44

> <JCHEM_REFRACTIVITY>
16.94

> <JCHEM_ROTATABLE_BOND_COUNT>
0 __ 

$$$$
