
  Mrv0541 02231216362D          

 25 27  0  0  0  0            999 V2000
   -3.8837   -2.8414    0.0000 C    0  0  0  0  0  0  0  0  0  0  0  0
   -3.0587   -2.8414    0.0000 C    0  0  0  0  0  0  0  0  0  0  0  0
   -2.6462   -3.5558    0.0000 C    0  0  0  0  0  0  0  0  0  0  0  0
   -2.6462   -2.1269    0.0000 C    0  0  0  0  0  0  0  0  0  0  0  0
   -1.8212   -2.1269    0.0000 O    0  0  0  0  0  0  0  0  0  0  0  0
   -1.4087   -1.4124    0.0000 C    0  0  0  0  0  0  0  0  0  0  0  0
   -1.8212   -0.6979    0.0000 C    0  0  0  0  0  0  0  0  0  0  0  0
   -1.4087    0.0165    0.0000 C    0  0  0  0  0  0  0  0  0  0  0  0
   -0.5837    0.0165    0.0000 C    0  0  0  0  0  0  0  0  0  0  0  0
   -0.1712   -0.6979    0.0000 C    0  0  0  0  0  0  0  0  0  0  0  0
   -0.5837   -1.4124    0.0000 C    0  0  0  0  0  0  0  0  0  0  0  0
   -0.1712   -2.1269    0.0000 O    0  5  0  0  0  0  0  0  0  0  0  0
    0.6538   -0.6979    0.0000 C    0  0  0  0  0  0  0  0  0  0  0  0
    1.1387   -0.0305    0.0000 N    0  0  0  0  0  0  0  0  0  0  0  0
    1.9233   -0.2854    0.0000 C    0  0  0  0  0  0  0  0  0  0  0  0
    2.6378    0.1271    0.0000 C    0  0  0  0  0  0  0  0  0  0  0  0
    3.3523   -0.2854    0.0000 C    0  0  0  0  0  0  0  0  0  0  0  0
    4.0668    0.1271    0.0000 Cl   0  0  0  0  0  0  0  0  0  0  0  0
    3.3523   -1.1104    0.0000 C    0  0  0  0  0  0  0  0  0  0  0  0
    2.6378   -1.5229    0.0000 C    0  0  0  0  0  0  0  0  0  0  0  0
    1.9233   -1.1104    0.0000 C    0  0  0  0  0  0  0  0  0  0  0  0
    1.1387   -1.3654    0.0000 N    0  0  0  0  0  0  0  0  0  0  0  0
    4.0668   -1.5229    0.0000 C    0  0  0  0  0  0  0  0  0  0  0  0
    4.7812   -1.1104    0.0000 N    0  0  0  0  0  0  0  0  0  0  0  0
    4.0668   -2.3479    0.0000 N    0  3  0  0  0  0  0  0  0  0  0  0
  1  2  1  0  0  0  0
  2  3  1  0  0  0  0
  2  4  1  0  0  0  0
  4  5  1  0  0  0  0
  5  6  1  0  0  0  0
  6  7  2  0  0  0  0
  7  8  1  0  0  0  0
  8  9  2  0  0  0  0
  9 10  1  0  0  0  0
 10 11  2  0  0  0  0
  6 11  1  0  0  0  0
 11 12  1  0  0  0  0
 10 13  1  0  0  0  0
 13 14  4  0  0  0  0
 14 15  4  0  0  0  0
 15 16  4  0  0  0  0
 16 17  4  0  0  0  0
 17 18  1  0  0  0  0
 17 19  4  0  0  0  0
 19 20  4  0  0  0  0
 20 21  4  0  0  0  0
 15 21  4  0  0  0  0
 21 22  4  0  0  0  0
 13 22  4  0  0  0  0
 19 23  1  0  0  0  0
 23 24  1  0  0  0  0
 23 25  2  0  0  0  0
M  END
> <DRUGBANK_ID>
DB02989

> <DRUG_GROUPS>
experimental

> <GENERIC_NAME>
CRA_10972

> <CHEMICAL_FORMULA>
C18H18ClN4O2

> <MOLECULAR_WEIGHT>
357.814

> <EXACT_MASS>
357.111828547

> <IUPAC_NAME>
2-{5-[amino(iminiumyl)methyl]-6-chloro-1,3-benzodiazol-2-yl}-6-(2-methylpropoxy)benzen-1-olate

> <IUPAC_TRADITIONAL_NAME>
2-{5-[amino(iminio)methyl]-6-chloro-1,3-benzodiazol-2-yl}-6-(2-methylpropoxy)benzenolate

> <SMILES>
CC(C)COC1=CC=CC(c2nc3cc(Cl)c(cc3n2)C(N)=[NH2+])=C1[O-]

> <JCHEM_ACCEPTOR_COUNT>
5

> <JCHEM_DONOR_COUNT>
2

> <JCHEM_ACIDIC_PKA>
8.66

> <JCHEM_BASIC_PKA>
9.56

> <JCHEM_PHYSIOLOGICAL_CHARGE>
1

> <ALOGPS_LOGP>
1.45

> <JCHEM_LOGP>
3.54

> <ALOGPS_LOGS>
-5.3

> <JCHEM_POLARIZABILITY>
38.42

> <JCHEM_POLAR_SURFACE_AREA>
109.68

> <JCHEM_REFRACTIVITY>
129.51

> <JCHEM_ROTATABLE_BOND_COUNT>
5

> <ALOGPS_SOLUBILITY>
1.89e-03 g/l __ 

$$$$
