
  Mrv0541 02231215542D          

 15 15  0  0  0  0            999 V2000
    1.4289   -1.6500    0.0000 N   0  0  0  0  0  0  0  0  0  0  0  0
    0.7145   -1.2375    0.0000 C   0  0  0  0  0  0  0  0  0  0  0  0
    0.0000   -1.6500    0.0000 N   0  0  0  0  0  0  0  0  0  0  0  0
    0.7145   -0.4125    0.0000 C   0  0  0  0  0  0  0  0  0  0  0  0
    0.0000    0.0000    0.0000 C   0  0  0  0  0  0  0  0  0  0  0  0
    0.0000    0.8250    0.0000 C   0  0  0  0  0  0  0  0  0  0  0  0
    0.7145    1.2375    0.0000 C   0  0  0  0  0  0  0  0  0  0  0  0
    0.7145    2.0625    0.0000 C   0  0  0  0  0  0  0  0  0  0  0  0
    0.0000    2.4750    0.0000 C   0  0  0  0  0  0  0  0  0  0  0  0
   -0.7145    2.0625    0.0000 O   0  0  0  0  0  0  0  0  0  0  0  0
    0.0000    3.3000    0.0000 C   0  0  0  0  0  0  0  0  0  0  0  0
   -0.7145    3.7125    0.0000 O   0  0  0  0  0  0  0  0  0  0  0  0
    0.7145    3.7125    0.0000 O   0  0  0  0  0  0  0  0  0  0  0  0
    1.4289    0.8250    0.0000 C   0  0  0  0  0  0  0  0  0  0  0  0
    1.4289    0.0000    0.0000 C   0  0  0  0  0  0  0  0  0  0  0  0
  1  2  1  0  0  0  0
  2  3  2  0  0  0  0
  2  4  1  0  0  0  0
  4  5  2  0  0  0  0
  5  6  1  0  0  0  0
  6  7  2  0  0  0  0
  7  8  1  0  0  0  0
  8  9  1  0  0  0  0
  9 10  2  0  0  0  0
  9 11  1  0  0  0  0
 11 12  1  0  0  0  0
 11 13  2  0  0  0  0
  7 14  1  0  0  0  0
 14 15  2  0  0  0  0
  4 15  1  0  0  0  0
M  END
> <DRUGBANK_ID>
DB02018

> <DRUG_GROUPS>
experimental

> <GENERIC_NAME>
Amido Phenyl Pyruvic Acid

> <CHEMICAL_FORMULA>
C10H10N2O3

> <MOLECULAR_WEIGHT>
206.198

> <EXACT_MASS>
206.069142196

> <IUPAC_NAME>
3-(4-carbamimidoylphenyl)-2-oxopropanoic acid

> <IUPAC_TRADITIONAL_NAME>
amido phenyl pyruvic acid

> <INCHI_IDENTIFIER>
InChI=1S/C10H10N2O3/c11-9(12)7-3-1-6(2-4-7)5-8(13)10(14)15/h1-4H,5H2,(H3,11,12)(H,14,15)

> <INCHI_KEY>
InChIKey=ZXBYWYQEQQBMBT-UHFFFAOYSA-N

> <SMILES>
NC(=N)C1=CC=C(CC(=O)C(O)=O)C=C1

> <JCHEM_ACCEPTOR_COUNT>
5

> <JCHEM_DONOR_COUNT>
3

> <JCHEM_ACIDIC_PKA>
3.11

> <JCHEM_BASIC_PKA>
11.49

> <JCHEM_PHYSIOLOGICAL_CHARGE>
0

> <ALOGPS_LOGP>
0.58

> <JCHEM_LOGP>
-0.82

> <ALOGPS_LOGS>
-2.8

> <JCHEM_POLARIZABILITY>
19.85

> <JCHEM_POLAR_SURFACE_AREA>
104.24

> <JCHEM_REFRACTIVITY>
64.38

> <JCHEM_ROTATABLE_BOND_COUNT>
4

> <ALOGPS_SOLUBILITY>
3.09e-01 g/l __ 

$$$$
