
  Mrv0541 02231216432D          

  5  4  0  0  0  0            999 V2000
     0.825    -0.825     0.000 O    0  5  0  0  0  0  0  0  0  0  0  0
     0.825     0.000     0.000 Cl   0  0  0  0  0  0  0  0  0  0  0  0
     0.825     0.825     0.000 O    0  0  0  0  0  0  0  0  0  0  0  0
     1.650     0.000     0.000 O    0  0  0  0  0  0  0  0  0  0  0  0
     0.000     0.000     0.000 O    0  0  0  0  0  0  0  0  0  0  0  0
  1  2  1  0  0  0  0
  2  3  2  0  0  0  0
  2  4  2  0  0  0  0
  2  5  2  0  0  0  0
M  END
> <DRUGBANK_ID>
DB03138

> <DRUG_GROUPS>
experimental

> <GENERIC_NAME>
Perchlorate Ion

> <CHEMICAL_FORMULA>
ClO4

> <MOLECULAR_WEIGHT>
99.451

> <EXACT_MASS>
98.948511195

> <IUPAC_NAME>
perchlorate

> <IUPAC_TRADITIONAL_NAME>
perchlorate ion

> <INCHI_IDENTIFIER>
InChI=1S/ClHO4/c2-1(3,4)5/h(H,2,3,4,5)/p-1

> <INCHI_KEY>
InChIKey=VLTRZXGMWDSKGL-UHFFFAOYSA-M

> <SMILES>
[O-][Cl](=O)(=O)=O

> <JCHEM_ACCEPTOR_COUNT>
4

> <JCHEM_DONOR_COUNT>
0

> <JCHEM_ACIDIC_PKA>
-6.9

> <JCHEM_PHYSIOLOGICAL_CHARGE>
-1

> <JCHEM_LOGP>
-0.098

> <JCHEM_POLARIZABILITY>
5.23

> <JCHEM_POLAR_SURFACE_AREA>
74.27

> <JCHEM_REFRACTIVITY>
11.91

> <JCHEM_ROTATABLE_BOND_COUNT>
0 __ 

$$$$
