
  Mrv0541 02231217122D          

 12 11  0  0  1  0            999 V2000
    4.6184    2.6664    0.0000 N   0  0  0  0  0  0  0  0  0  0  0  0
    4.6184    1.8414    0.0000 C   0  0  1  0  0  0  0  0  0  0  0  0
    3.9039    1.4289    0.0000 C   0  0  2  0  0  0  0  0  0  0  0  0
    3.9039    0.6039    0.0000 O   0  0  0  0  0  0  0  0  0  0  0  0
    3.1895    1.8414    0.0000 O   0  0  0  0  0  0  0  0  0  0  0  0
    2.4750    1.4289    0.0000 P   0  0  0  0  0  0  0  0  0  0  0  0
    1.7605    1.0164    0.0000 O   0  0  0  0  0  0  0  0  0  0  0  0
    2.8875    0.7145    0.0000 O   0  0  0  0  0  0  0  0  0  0  0  0
    2.0625    2.1434    0.0000 O   0  0  0  0  0  0  0  0  0  0  0  0
    5.3329    1.4289    0.0000 C   0  0  0  0  0  0  0  0  0  0  0  0
    6.0474    1.8414    0.0000 O   0  0  0  0  0  0  0  0  0  0  0  0
    5.3329    0.6039    0.0000 O   0  0  0  0  0  0  0  0  0  0  0  0
  2  1  1  6  0  0  0
  2  3  1  0  0  0  0
  3  4  1  6  0  0  0
  3  5  1  0  0  0  0
  5  6  1  0  0  0  0
  6  7  1  0  0  0  0
  6  8  1  0  0  0  0
  6  9  2  0  0  0  0
  2 10  1  0  0  0  0
 10 11  1  0  0  0  0
 10 12  2  0  0  0  0
M  END
> <DRUGBANK_ID>
DB03821

> <DRUG_GROUPS>
experimental

> <GENERIC_NAME>
2-Amino-3-Hydroxy-3-Phosphonooxy-Propionic Acid

> <CHEMICAL_FORMULA>
C3H8NO7P

> <MOLECULAR_WEIGHT>
201.0719

> <EXACT_MASS>
201.003838127

> <IUPAC_NAME>
(2S,3R)-2-amino-3-hydroxy-3-(phosphonooxy)propanoic acid

> <IUPAC_TRADITIONAL_NAME>
(2S,3R)-2-amino-3-hydroxy-3-(phosphonooxy)propanoic acid

> <INCHI_IDENTIFIER>
InChI=1S/C3H8NO7P/c4-1(2(5)6)3(7)11-12(8,9)10/h1,3,7H,4H2,(H,5,6)(H2,8,9,10)/t1-,3-/m1/s1

> <INCHI_KEY>
InChIKey=JVLKWZAWYDOHCD-NPKIIWCNSA-N

> <SMILES>
N[C@@H]([C@H](O)OP(O)(O)=O)C(O)=O

> <JCHEM_ACCEPTOR_COUNT>
7

> <JCHEM_DONOR_COUNT>
5

> <JCHEM_ACIDIC_PKA>
0.91

> <JCHEM_BASIC_PKA>
8.82

> <JCHEM_PHYSIOLOGICAL_CHARGE>
-2

> <ALOGPS_LOGP>
-1.9

> <JCHEM_LOGP>
-3.5

> <ALOGPS_LOGS>
-0.92

> <JCHEM_POLARIZABILITY>
14.66

> <JCHEM_POLAR_SURFACE_AREA>
150.31

> <JCHEM_REFRACTIVITY>
33.94

> <JCHEM_ROTATABLE_BOND_COUNT>
4

> <ALOGPS_SOLUBILITY>
2.41e+01 g/l __ 

$$$$
