AI1
  Mrv0541 02231216562D          

 33 35  0  0  0  0            999 V2000
    0.3469   -1.5165    0.0000 C   0  0  2  0  0  0  0  0  0  0  0  0
    0.3469   -0.6915    0.0000 O   0  0  0  0  0  0  0  0  0  0  0  0
    1.0613   -1.9290    0.0000 C   0  0  2  0  0  0  0  0  0  0  0  0
    1.7758   -1.5165    0.0000 O   0  0  0  0  0  0  0  0  0  0  0  0
    1.0613   -2.7540    0.0000 C   0  0  1  0  0  0  0  0  0  0  0  0
    1.7758   -3.1665    0.0000 O   0  0  0  0  0  0  0  0  0  0  0  0
    0.3469   -3.1665    0.0000 C   0  0  1  0  0  0  0  0  0  0  0  0
    0.3469   -3.9915    0.0000 O   0  0  0  0  0  0  0  0  0  0  0  0
   -0.3676   -2.7540    0.0000 C   0  0  2  0  0  0  0  0  0  0  0  0
   -0.3676   -1.9290    0.0000 O   0  0  0  0  0  0  0  0  0  0  0  0
   -1.0821   -3.1665    0.0000 C   0  0  0  0  0  0  0  0  0  0  0  0
   -1.7965   -2.7540    0.0000 O   0  0  0  0  0  0  0  0  0  0  0  0
   -0.3676   -0.2790    0.0000 C   0  0  0  0  0  0  0  0  0  0  0  0
   -1.0821   -0.6915    0.0000 C   0  0  0  0  0  0  0  0  0  0  0  0
   -1.7965   -0.2790    0.0000 C   0  0  0  0  0  0  0  0  0  0  0  0
   -1.7965    0.5460    0.0000 C   0  0  0  0  0  0  0  0  0  0  0  0
   -1.0821    0.9585    0.0000 C   0  0  0  0  0  0  0  0  0  0  0  0
   -0.3676    0.5460    0.0000 C   0  0  0  0  0  0  0  0  0  0  0  0
   -1.0821    1.7835    0.0000 C   0  0  0  0  0  0  0  0  0  0  0  0
   -1.7965    2.1960    0.0000 O   0  0  0  0  0  0  0  0  0  0  0  0
   -0.3676    2.1960    0.0000 N   0  0  0  0  0  0  0  0  0  0  0  0
   -0.3676    3.0210    0.0000 C   0  0  0  0  0  0  0  0  0  0  0  0
    0.3469    3.4335    0.0000 C   0  0  0  0  0  0  0  0  0  0  0  0
    0.3469    4.2585    0.0000 C   0  0  0  0  0  0  0  0  0  0  0  0
    1.0613    4.6710    0.0000 C   0  0  0  0  0  0  0  0  0  0  0  0
    1.7758    4.2585    0.0000 C   0  0  0  0  0  0  0  0  0  0  0  0
    1.7758    3.4335    0.0000 C   0  0  0  0  0  0  0  0  0  0  0  0
    1.0613    3.0210    0.0000 C   0  0  0  0  0  0  0  0  0  0  0  0
    0.7222   -1.0692    0.0000 H   0  0  0  0  0  0  0  0  0  0  0  0
    1.2611   -1.3803    0.0000 H   0  0  0  0  0  0  0  0  0  0  0  0
    1.5670   -2.4620    0.0000 H   0  0  0  0  0  0  0  0  0  0  0  0
    0.8526   -3.4585    0.0000 H   0  0  0  0  0  0  0  0  0  0  0  0
   -0.3676   -3.3379    0.0000 H   0  0  0  0  0  0  0  0  0  0  0  0
  1  2  1  6  0  0  0
  1  3  1  0  0  0  0
  1 10  1  0  0  0  0
  1 29  1  1  0  0  0
  2 13  1  0  0  0  0
  3  4  1  6  0  0  0
  3  5  1  0  0  0  0
  3 30  1  1  0  0  0
  5  6  1  1  0  0  0
  5  7  1  0  0  0  0
  5 31  1  6  0  0  0
  7  8  1  1  0  0  0
  7  9  1  0  0  0  0
  7 32  1  6  0  0  0
  9 10  1  0  0  0  0
  9 11  1  1  0  0  0
  9 33  1  6  0  0  0
 11 12  1  0  0  0  0
 13 14  2  0  0  0  0
 13 18  1  0  0  0  0
 14 15  1  0  0  0  0
 15 16  2  0  0  0  0
 16 17  1  0  0  0  0
 17 18  2  0  0  0  0
 17 19  1  0  0  0  0
 19 20  2  0  0  0  0
 19 21  1  0  0  0  0
 21 22  1  0  0  0  0
 22 23  1  0  0  0  0
 23 24  2  0  0  0  0
 23 28  1  0  0  0  0
 24 25  1  0  0  0  0
 25 26  2  0  0  0  0
 26 27  1  0  0  0  0
 27 28  2  0  0  0  0
M  END
> <DRUGBANK_ID>
DB03446

> <DRUG_GROUPS>
experimental

> <GENERIC_NAME>
3-Benzylaminocarbonylphenyl-Alpha-D-Galactoside

> <SYNONYMS>


> <CHEMICAL_FORMULA>
C20H23NO7

> <MOLECULAR_WEIGHT>
389.3991

> <EXACT_MASS>
389.147452095

> <IUPAC_NAME>
N-benzyl-3-{[(2R,3R,4S,5R,6R)-3,4,5-trihydroxy-6-(hydroxymethyl)oxan-2-yl]oxy}benzamide

> <IUPAC_TRADITIONAL_NAME>
N-benzyl-3-{[(2R,3R,4S,5R,6R)-3,4,5-trihydroxy-6-(hydroxymethyl)oxan-2-yl]oxy}benzamide

> <INCHI_IDENTIFIER>
InChI=1S/C20H23NO7/c22-11-15-16(23)17(24)18(25)20(28-15)27-14-8-4-7-13(9-14)19(26)21-10-12-5-2-1-3-6-12/h1-9,15-18,20,22-25H,10-11H2,(H,21,26)/t15-,16+,17+,18-,20+/m1/s1

> <INCHI_KEY>
InChIKey=FSMWGHKWKYCPKE-QTVCLEQKSA-N

> <SMILES>
[H][C@]1(CO)O[C@]([H])(OC2=CC=CC(=C2)C(=O)NCC2=CC=CC=C2)[C@]([H])(O)[C@@]([H])(O)[C@@]1([H])O

> <JCHEM_ACCEPTOR_COUNT>
7

> <JCHEM_DONOR_COUNT>
5

> <JCHEM_ACIDIC_PKA>
12.2

> <JCHEM_BASIC_PKA>
-1.2

> <JCHEM_PHYSIOLOGICAL_CHARGE>
0

> <ALOGPS_LOGP>
0.4

> <JCHEM_LOGP>
0.2

> <ALOGPS_LOGS>
-2.2

> <JCHEM_POLARIZABILITY>
38.93

> <JCHEM_POLAR_SURFACE_AREA>
128.48

> <JCHEM_REFRACTIVITY>
98.77

> <JCHEM_ROTATABLE_BOND_COUNT>
6

> <ALOGPS_SOLUBILITY>
2.49e+00 g/l __ 

$$$$
