
  Mrv0541 02231216522D          

  9  9  0  0  0  0            999 V2000
    2.8579    0.0000    0.0000 O   0  0  0  0  0  0  0  0  0  0  0  0
    2.1434   -0.4125    0.0000 C   0  0  0  0  0  0  0  0  0  0  0  0
    1.4289    0.0000    0.0000 C   0  0  0  0  0  0  0  0  0  0  0  0
    0.7145   -0.4125    0.0000 C   0  0  0  0  0  0  0  0  0  0  0  0
    0.0000    0.0000    0.0000 C   0  0  0  0  0  0  0  0  0  0  0  0
    0.0000    0.8250    0.0000 C   0  0  0  0  0  0  0  0  0  0  0  0
    0.7145    1.2375    0.0000 C   0  0  0  0  0  0  0  0  0  0  0  0
    0.7145    2.0625    0.0000 I   0  0  0  0  0  0  0  0  0  0  0  0
    1.4289    0.8250    0.0000 C   0  0  0  0  0  0  0  0  0  0  0  0
  1  2  1  0  0  0  0
  2  3  1  0  0  0  0
  3  4  2  0  0  0  0
  4  5  1  0  0  0  0
  5  6  2  0  0  0  0
  6  7  1  0  0  0  0
  7  8  1  0  0  0  0
  7  9  2  0  0  0  0
  3  9  1  0  0  0  0
M  END
> <DRUGBANK_ID>
DB03339

> <DRUG_GROUPS>
experimental

> <GENERIC_NAME>
3-Iodo-Benzyl Alcohol

> <CHEMICAL_FORMULA>
C7H7IO

> <MOLECULAR_WEIGHT>
234.0344

> <EXACT_MASS>
233.954158266

> <IUPAC_NAME>
(3-iodophenyl)methanol

> <IUPAC_TRADITIONAL_NAME>
3-iodo-benzyl alcohol

> <INCHI_IDENTIFIER>
InChI=1S/C7H7IO/c8-7-3-1-2-6(4-7)5-9/h1-4,9H,5H2

> <INCHI_KEY>
InChIKey=QGCCNWSXJHGUNL-UHFFFAOYSA-N

> <SMILES>
OCC1=CC=CC(I)=C1

> <JCHEM_ACCEPTOR_COUNT>
1

> <JCHEM_DONOR_COUNT>
1

> <JCHEM_ACIDIC_PKA>
14.93

> <JCHEM_BASIC_PKA>
-2.8

> <JCHEM_PHYSIOLOGICAL_CHARGE>
0

> <ALOGPS_LOGP>
1.95

> <JCHEM_LOGP>
2.13

> <ALOGPS_LOGS>
-2.9

> <JCHEM_POLARIZABILITY>
17.33

> <JCHEM_POLAR_SURFACE_AREA>
20.23

> <JCHEM_REFRACTIVITY>
46.24

> <JCHEM_ROTATABLE_BOND_COUNT>
1

> <ALOGPS_SOLUBILITY>
3.29e-01 g/l __ 

$$$$
