AL9
  Mrv0541 02231217002D          

 22 23  0  0  0  0            999 V2000
    0.9552    2.8533    0.0000 C   0  0  0  0  0  0  0  0  0  0  0  0
   -0.0916   -0.5048    0.0000 C   0  0  0  0  0  0  0  0  0  0  0  0
   -0.5765   -1.1722    0.0000 C   0  0  0  0  0  0  0  0  0  0  0  0
   -0.2409   -1.9259    0.0000 C   0  0  0  0  0  0  0  0  0  0  0  0
   -0.7259   -2.5934    0.0000 C   0  0  0  0  0  0  0  0  0  0  0  0
   -1.5463   -2.5071    0.0000 C   0  0  0  0  0  0  0  0  0  0  0  0
   -1.8819   -1.7534    0.0000 C   0  0  0  0  0  0  0  0  0  0  0  0
   -1.3970   -1.0860    0.0000 C   0  0  0  0  0  0  0  0  0  0  0  0
    0.9552    4.5033    0.0000 O   0  0  0  0  0  0  0  0  0  0  0  0
    0.1302    3.6783    0.0000 O   0  0  0  0  0  0  0  0  0  0  0  0
    1.7802    3.6783    0.0000 N   0  0  0  0  0  0  0  0  0  0  0  0
    0.9552    3.6783    0.0000 S   0  0  0  0  0  0  0  0  0  0  0  0
    1.6226    2.3684    0.0000 C   0  0  0  0  0  0  0  0  0  0  0  0
    1.3677    1.5838    0.0000 C   0  0  0  0  0  0  0  0  0  0  0  0
    0.5427    1.5838    0.0000 C   0  0  0  0  0  0  0  0  0  0  0  0
    0.2878    2.3684    0.0000 S   0  0  0  0  0  0  0  0  0  0  0  0
    0.0578    0.9163    0.0000 S   0  0  0  0  0  0  0  0  0  0  0  0
   -0.6097    1.4012    0.0000 O   0  0  0  0  0  0  0  0  0  0  0  0
    0.7252    0.4314    0.0000 O   0  0  0  0  0  0  0  0  0  0  0  0
   -0.4271    0.2489    0.0000 N   0  0  0  0  0  0  0  0  0  0  0  0
   -2.0313   -3.1746    0.0000 O   0  0  0  0  0  0  0  0  0  0  0  0
   -1.6957   -3.9282    0.0000 C   0  0  0  0  0  0  0  0  0  0  0  0
  1 12  1  0  0  0  0
  1 13  2  0  0  0  0
  1 16  1  0  0  0  0
  2  3  1  0  0  0  0
  2 20  1  0  0  0  0
  3  4  2  0  0  0  0
  3  8  1  0  0  0  0
  4  5  1  0  0  0  0
  5  6  2  0  0  0  0
  6  7  1  0  0  0  0
  6 21  1  0  0  0  0
  7  8  2  0  0  0  0
  9 12  2  0  0  0  0
 10 12  2  0  0  0  0
 11 12  1  0  0  0  0
 13 14  1  0  0  0  0
 14 15  2  0  0  0  0
 15 16  1  0  0  0  0
 15 17  1  0  0  0  0
 17 18  2  0  0  0  0
 17 19  2  0  0  0  0
 17 20  1  0  0  0  0
 21 22  1  0  0  0  0
M  END
> <DRUGBANK_ID>
DB03526

> <DRUG_GROUPS>
experimental

> <GENERIC_NAME>
AL5927

> <CHEMICAL_FORMULA>
C12H14N2O5S3

> <MOLECULAR_WEIGHT>
362.445

> <EXACT_MASS>
362.006483638

> <IUPAC_NAME>
2-N-[(4-methoxyphenyl)methyl]thiophene-2,5-disulfonamide

> <IUPAC_TRADITIONAL_NAME>
2-N-[(4-methoxyphenyl)methyl]thiophene-2,5-disulfonamide

> <INCHI_IDENTIFIER>
InChI=1S/C12H14N2O5S3/c1-19-10-4-2-9(3-5-10)8-14-22(17,18)12-7-6-11(20-12)21(13,15)16/h2-7,14H,8H2,1H3,(H2,13,15,16)

> <INCHI_KEY>
InChIKey=LRRAIRJIZOLGPR-UHFFFAOYSA-N

> <SMILES>
COC1=CC=C(CNS(=O)(=O)C2=CC=C(S2)S(N)(=O)=O)C=C1

> <JCHEM_ACCEPTOR_COUNT>
5

> <JCHEM_DONOR_COUNT>
2

> <JCHEM_ACIDIC_PKA>
8.17

> <JCHEM_BASIC_PKA>
-4.8

> <JCHEM_PHYSIOLOGICAL_CHARGE>
0

> <ALOGPS_LOGP>
0.55

> <JCHEM_LOGP>
1.09

> <ALOGPS_LOGS>
-3.5

> <JCHEM_POLARIZABILITY>
34.36

> <JCHEM_POLAR_SURFACE_AREA>
115.56

> <JCHEM_REFRACTIVITY>
81.77

> <JCHEM_ROTATABLE_BOND_COUNT>
5

> <ALOGPS_SOLUBILITY>
1.19e-01 g/l __ 

$$$$
