
  Mrv0541 02231216592D          

  9  8  0  0  1  0            999 V2000
    1.9520    1.9520    0.0000 O   0  0  0  0  0  0  0  0  0  0  0  0
    1.9520    1.1270    0.0000 C   0  0  2  0  0  0  0  0  0  0  0  0
    1.2375    0.7145    0.0000 C   0  0  0  0  0  0  0  0  0  0  0  0
    0.5230    1.1270    0.0000 C   0  0  0  0  0  0  0  0  0  0  0  0
   -0.1914    0.7145    0.0000 O   0  0  0  0  0  0  0  0  0  0  0  0
    0.5230    1.9520    0.0000 O   0  0  0  0  0  0  0  0  0  0  0  0
    2.6664    0.7145    0.0000 C   0  0  0  0  0  0  0  0  0  0  0  0
    3.3809    1.1270    0.0000 O   0  5  0  0  0  0  0  0  0  0  0  0
    2.6664   -0.1105    0.0000 O   0  0  0  0  0  0  0  0  0  0  0  0
  2  1  1  1  0  0  0
  2  3  1  0  0  0  0
  3  4  1  0  0  0  0
  4  5  1  0  0  0  0
  4  6  2  0  0  0  0
  2  7  1  0  0  0  0
  7  8  1  0  0  0  0
  7  9  2  0  0  0  0
M  END
> <DRUGBANK_ID>
DB03499

> <DRUG_GROUPS>
experimental

> <GENERIC_NAME>
Malate Ion

> <CHEMICAL_FORMULA>
C4H5O5

> <MOLECULAR_WEIGHT>
133.0795

> <EXACT_MASS>
133.01369827

> <IUPAC_NAME>
(2R)-3-carboxy-2-hydroxypropanoate

> <IUPAC_TRADITIONAL_NAME>
malate ion

> <INCHI_IDENTIFIER>
InChI=1S/C4H6O5/c5-2(4(8)9)1-3(6)7/h2,5H,1H2,(H,6,7)(H,8,9)/p-1/t2-/m1/s1

> <INCHI_KEY>
InChIKey=BJEPYKJPYRNKOW-UWTATZPHSA-M

> <SMILES>
O[C@H](CC(O)=O)C([O-])=O

> <JCHEM_ACCEPTOR_COUNT>
5

> <JCHEM_DONOR_COUNT>
2

> <JCHEM_ACIDIC_PKA>
3.2

> <JCHEM_BASIC_PKA>
-3.9

> <JCHEM_PHYSIOLOGICAL_CHARGE>
-2

> <ALOGPS_LOGP>
-0.98

> <JCHEM_LOGP>
-1.1

> <ALOGPS_LOGS>
0.61

> <JCHEM_POLARIZABILITY>
10.49

> <JCHEM_POLAR_SURFACE_AREA>
97.66

> <JCHEM_REFRACTIVITY>
35.71

> <JCHEM_ROTATABLE_BOND_COUNT>
3

> <ALOGPS_SOLUBILITY>
6.13e+02 g/l __ 

$$$$
