
  Mrv0541 02231216452D          

 23 26  0  0  1  0            999 V2000
   -5.5064   -0.2349    0.0000 N   0  0  0  0  0  0  0  0  0  0  0  0
   -4.7919   -0.6474    0.0000 C   0  0  0  0  0  0  0  0  0  0  0  0
   -4.0774   -0.2349    0.0000 N   0  0  0  0  0  0  0  0  0  0  0  0
   -3.3629   -0.6474    0.0000 C   0  0  0  0  0  0  0  0  0  0  0  0
   -3.3629   -1.4724    0.0000 C   0  0  0  0  0  0  0  0  0  0  0  0
   -2.5783   -1.7273    0.0000 N   0  0  0  0  0  0  0  0  0  0  0  0
   -2.0934   -1.0599    0.0000 C   0  0  0  0  0  0  0  0  0  0  0  0
   -2.5783   -0.3925    0.0000 N   0  0  0  0  0  0  0  0  0  0  0  0
   -2.3234    0.3922    0.0000 C   0  0  1  0  0  0  0  0  0  0  0  0
   -2.8083    1.0596    0.0000 O   0  0  0  0  0  0  0  0  0  0  0  0
   -2.3234    1.7270    0.0000 C   0  0  2  0  0  0  0  0  0  0  0  0
   -2.5783    2.5117    0.0000 C   0  0  0  0  0  0  0  0  0  0  0  0
   -3.3853    2.6832    0.0000 O   0  0  0  0  0  0  0  0  0  0  0  0
   -1.5388    1.4721    0.0000 C   0  0  2  0  0  0  0  0  0  0  0  0
   -0.7541    1.7270    0.0000 O   0  0  0  0  0  0  0  0  0  0  0  0
   -0.2692    1.0596    0.0000 P   0  0  2  0  0  0  0  0  0  0  0  0
    0.3439    1.6116    0.0000 O   0  0  0  0  0  0  0  0  0  0  0  0
    0.3439    0.5076    0.0000 S   0  0  0  0  0  0  0  0  0  0  0  0
   -0.7541    0.3922    0.0000 O   0  0  0  0  0  0  0  0  0  0  0  0
   -1.5388    0.6471    0.0000 C   0  0  2  0  0  0  0  0  0  0  0  0
   -4.0774   -1.8849    0.0000 C   0  0  0  0  0  0  0  0  0  0  0  0
   -4.0774   -2.7099    0.0000 O   0  0  0  0  0  0  0  0  0  0  0  0
   -4.7919   -1.4724    0.0000 N   0  0  0  0  0  0  0  0  0  0  0  0
  1  2  1  0  0  0  0
  2  3  2  0  0  0  0
  3  4  1  0  0  0  0
  4  5  2  0  0  0  0
  5  6  1  0  0  0  0
  6  7  2  0  0  0  0
  7  8  1  0  0  0  0
  4  8  1  0  0  0  0
  9  8  1  1  0  0  0
  9 10  1  0  0  0  0
 10 11  1  0  0  0  0
 11 12  1  6  0  0  0
 12 13  1  0  0  0  0
 11 14  1  0  0  0  0
 14 15  1  6  0  0  0
 15 16  1  0  0  0  0
 16 17  1  1  0  0  0
 16 18  2  0  0  0  0
 16 19  1  0  0  0  0
 20 19  1  6  0  0  0
  9 20  1  0  0  0  0
 14 20  1  0  0  0  0
  5 21  1  0  0  0  0
 21 22  2  0  0  0  0
 21 23  1  0  0  0  0
  2 23  1  0  0  0  0
M  END
> <DRUGBANK_ID>
DB03178

> <DRUG_GROUPS>
experimental

> <GENERIC_NAME>
Guanosine-2',3'-Cyclophosphorothioate

> <CHEMICAL_FORMULA>
C10H12N5O6PS

> <MOLECULAR_WEIGHT>
361.271

> <EXACT_MASS>
361.024590343

> <IUPAC_NAME>
9-[(2S,3aS,4S,6R,6aS)-2-hydroxy-6-(hydroxymethyl)-2-sulfanylidene-tetrahydro-2H-1,3,5,2$l^{5}-furo[3,4-d][1,3,2$l^{5}]dioxaphosphol-4-yl]-2-amino-6,9-dihydro-1H-purin-6-one

> <IUPAC_TRADITIONAL_NAME>
9-[(2S,3aS,4S,6R,6aS)-2-hydroxy-6-(hydroxymethyl)-2-sulfanylidene-tetrahydro-1,3,5,2$l^{5}-furo[3,4-d][1,3,2$l^{5}]dioxaphosphol-4-yl]-2-amino-1H-purin-6-one

> <INCHI_IDENTIFIER>
InChI=1S/C10H12N5O6PS/c11-10-13-7-4(8(17)14-10)12-2-15(7)9-6-5(3(1-16)19-9)20-22(18,23)21-6/h2-3,5-6,9,16H,1H2,(H,18,23)(H3,11,13,14,17)/t3-,5+,6+,9+,22+/m1/s1

> <INCHI_KEY>
InChIKey=QZEROIIFJLCOOE-PDBXSDAOSA-N

> <SMILES>
NC1=NC2=C(N=CN2[C@H]2O[C@H](CO)[C@@H]3O[P@](O)(=S)O[C@H]23)C(=O)N1

> <JCHEM_ACCEPTOR_COUNT>
7

> <JCHEM_DONOR_COUNT>
4

> <JCHEM_ACIDIC_PKA>
2.04

> <JCHEM_BASIC_PKA>
1.41

> <JCHEM_PHYSIOLOGICAL_CHARGE>
-1

> <ALOGPS_LOGP>
-0.87

> <JCHEM_LOGP>
-1.2

> <ALOGPS_LOGS>
-2.2

> <JCHEM_POLARIZABILITY>
31.18

> <JCHEM_POLAR_SURFACE_AREA>
153.45

> <JCHEM_REFRACTIVITY>
79.71

> <JCHEM_ROTATABLE_BOND_COUNT>
2

> <ALOGPS_SOLUBILITY>
2.38e+00 g/l __ 

$$$$
