
  Mrv0541 02231217032D          

 19 21  0  0  1  0            999 V2000
    2.7845    0.6979    0.0000 N   0  0  0  0  0  0  0  0  0  0  0  0
    2.0701    1.1104    0.0000 C   0  0  0  0  0  0  0  0  0  0  0  0
    1.3556    0.6979    0.0000 N   0  0  0  0  0  0  0  0  0  0  0  0
    0.6411    1.1104    0.0000 C   0  0  0  0  0  0  0  0  0  0  0  0
    0.6411    1.9354    0.0000 C   0  0  0  0  0  0  0  0  0  0  0  0
   -0.1435    2.1904    0.0000 N   0  0  0  0  0  0  0  0  0  0  0  0
   -0.6284    1.5229    0.0000 C   0  0  0  0  0  0  0  0  0  0  0  0
   -0.1435    0.8555    0.0000 N   0  0  0  0  0  0  0  0  0  0  0  0
   -0.3984    0.0709    0.0000 C   0  0  1  0  0  0  0  0  0  0  0  0
    0.0865   -0.5966    0.0000 O   0  0  0  0  0  0  0  0  0  0  0  0
   -0.3984   -1.2640    0.0000 C   0  0  2  0  0  0  0  0  0  0  0  0
   -0.1435   -2.0486    0.0000 C   0  0  0  0  0  0  0  0  0  0  0  0
    0.6635   -2.2201    0.0000 O   0  0  0  0  0  0  0  0  0  0  0  0
   -1.1831   -1.0091    0.0000 C   0  0  0  0  0  0  0  0  0  0  0  0
   -1.1831   -0.1841    0.0000 C   0  0  2  0  0  0  0  0  0  0  0  0
   -1.8505    0.3009    0.0000 O   0  0  0  0  0  0  0  0  0  0  0  0
    1.3556    2.3479    0.0000 C   0  0  0  0  0  0  0  0  0  0  0  0
    1.3556    3.1729    0.0000 O   0  0  0  0  0  0  0  0  0  0  0  0
    2.0701    1.9354    0.0000 N   0  0  0  0  0  0  0  0  0  0  0  0
  1  2  1  0  0  0  0
  2  3  2  0  0  0  0
  3  4  1  0  0  0  0
  4  5  2  0  0  0  0
  5  6  1  0  0  0  0
  6  7  2  0  0  0  0
  7  8  1  0  0  0  0
  4  8  1  0  0  0  0
  9  8  1  1  0  0  0
  9 10  1  0  0  0  0
 10 11  1  0  0  0  0
 11 12  1  6  0  0  0
 12 13  1  0  0  0  0
 11 14  1  0  0  0  0
 14 15  1  0  0  0  0
  9 15  1  0  0  0  0
 15 16  1  6  0  0  0
  5 17  1  0  0  0  0
 17 18  2  0  0  0  0
 17 19  1  0  0  0  0
  2 19  1  0  0  0  0
M  END
> <DRUGBANK_ID>
DB03609

> <DRUG_GROUPS>
experimental

> <GENERIC_NAME>
3-Deoxyguanosine

> <CHEMICAL_FORMULA>
C10H13N5O4

> <MOLECULAR_WEIGHT>
267.2413

> <EXACT_MASS>
267.096753929

> <IUPAC_NAME>
2-amino-9-[(2S,3S,5S)-3-hydroxy-5-(hydroxymethyl)oxolan-2-yl]-6,9-dihydro-1H-purin-6-one

> <IUPAC_TRADITIONAL_NAME>
3-deoxyguanosine

> <INCHI_IDENTIFIER>
InChI=1S/C10H13N5O4/c11-10-13-7-6(8(18)14-10)12-3-15(7)9-5(17)1-4(2-16)19-9/h3-5,9,16-17H,1-2H2,(H3,11,13,14,18)/t4-,5-,9-/m0/s1

> <INCHI_KEY>
InChIKey=OROIAVZITJBGSM-PJPYAQQDSA-N

> <SMILES>
NC1=NC2=C(N=CN2[C@H]2O[C@H](CO)C[C@@H]2O)C(=O)N1

> <JCHEM_ACCEPTOR_COUNT>
7

> <JCHEM_DONOR_COUNT>
4

> <JCHEM_ACIDIC_PKA>
10.16

> <JCHEM_BASIC_PKA>
1.83

> <JCHEM_PHYSIOLOGICAL_CHARGE>
0

> <ALOGPS_LOGP>
-1.7

> <JCHEM_LOGP>
-2

> <ALOGPS_LOGS>
-1.4

> <JCHEM_POLARIZABILITY>
25.37

> <JCHEM_POLAR_SURFACE_AREA>
134.99

> <JCHEM_REFRACTIVITY>
63.52

> <JCHEM_ROTATABLE_BOND_COUNT>
2

> <ALOGPS_SOLUBILITY>
1.19e+01 g/l __ 

$$$$
