
  Mrv0541 02231217002D          

 43 46  0  0  1  0            999 V2000
    1.4289   -2.4750    0.0000 N   0  0  0  0  0  0  0  0  0  0  0  0
    1.4289   -1.6500    0.0000 C   0  0  0  0  0  0  0  0  0  0  0  0
    2.1434   -1.2375    0.0000 C   0  0  0  0  0  0  0  0  0  0  0  0
    2.1434   -0.4125    0.0000 C   0  0  0  0  0  0  0  0  0  0  0  0
    2.8579    0.0000    0.0000 N   0  0  0  0  0  0  0  0  0  0  0  0
    2.8579    0.8250    0.0000 C   0  0  0  0  0  0  0  0  0  0  0  0
    3.5724    1.2375    0.0000 C   0  0  0  0  0  0  0  0  0  0  0  0
    4.2868    0.8250    0.0000 N   0  0  0  0  0  0  0  0  0  0  0  0
    5.0013    1.2375    0.0000 C   0  0  0  0  0  0  0  0  0  0  0  0
    5.7158    0.8250    0.0000 C   0  0  0  0  0  0  0  0  0  0  0  0
    6.4302    1.2375    0.0000 C   0  0  0  0  0  0  0  0  0  0  0  0
    7.1447    0.8250    0.0000 N   0  0  0  0  0  0  0  0  0  0  0  0
    7.8592    1.2375    0.0000 C   0  0  0  0  0  0  0  0  0  0  0  0
    7.8592    2.0625    0.0000 O   0  0  0  0  0  0  0  0  0  0  0  0
    8.5737    0.8250    0.0000 C   0  0  0  0  0  0  0  0  0  0  0  0
    9.2881    1.2375    0.0000 C   0  0  0  0  0  0  0  0  0  0  0  0
   10.0026    0.8250    0.0000 C   0  0  0  0  0  0  0  0  0  0  0  0
   10.7171    1.2375    0.0000 N   0  0  0  0  0  0  0  0  0  0  0  0
   11.4315    0.8250    0.0000 C   0  0  0  0  0  0  0  0  0  0  0  0
   11.4315    0.0000    0.0000 O   0  0  0  0  0  0  0  0  0  0  0  0
   12.1460    1.2375    0.0000 C   0  0  0  0  0  0  0  0  0  0  0  0
   12.8605    0.8250    0.0000 C   0  0  0  0  0  0  0  0  0  0  0  0
   13.6142    1.1606    0.0000 C   0  0  0  0  0  0  0  0  0  0  0  0
   14.1662    0.5475    0.0000 C   0  0  0  0  0  0  0  0  0  0  0  0
   13.7537   -0.1670    0.0000 C   0  0  0  0  0  0  0  0  0  0  0  0
   12.9467    0.0045    0.0000 S   0  0  0  0  0  0  0  0  0  0  0  0
   10.0026    0.0000    0.0000 C   0  0  0  0  0  0  0  0  0  0  0  0
    9.2881   -0.4125    0.0000 C   0  0  0  0  0  0  0  0  0  0  0  0
    9.2881   -1.2375    0.0000 O   0  0  0  0  0  0  0  0  0  0  0  0
    8.5737   -1.6500    0.0000 C   0  0  2  0  0  0  0  0  0  0  0  0
    8.5737   -2.4750    0.0000 O   0  0  0  0  0  0  0  0  0  0  0  0
    7.8592   -2.8875    0.0000 C   0  0  2  0  0  0  0  0  0  0  0  0
    7.8592   -3.7125    0.0000 C   0  0  0  0  0  0  0  0  0  0  0  0
    7.1447   -4.1250    0.0000 O   0  0  0  0  0  0  0  0  0  0  0  0
    7.1447   -2.4750    0.0000 C   0  0  1  0  0  0  0  0  0  0  0  0
    6.4302   -2.8875    0.0000 O   0  0  0  0  0  0  0  0  0  0  0  0
    7.1447   -1.6500    0.0000 C   0  0  2  0  0  0  0  0  0  0  0  0
    6.4302   -1.2375    0.0000 O   0  0  0  0  0  0  0  0  0  0  0  0
    7.8592   -1.2375    0.0000 C   0  0  1  0  0  0  0  0  0  0  0  0
    7.8592   -0.4125    0.0000 O   0  0  0  0  0  0  0  0  0  0  0  0
    8.5737    0.0000    0.0000 C   0  0  0  0  0  0  0  0  0  0  0  0
    4.2868    0.0000    0.0000 C   0  0  0  0  0  0  0  0  0  0  0  0
    3.5724   -0.4125    0.0000 C   0  0  0  0  0  0  0  0  0  0  0  0
  1  2  1  0  0  0  0
  2  3  1  0  0  0  0
  3  4  1  0  0  0  0
  4  5  1  0  0  0  0
  5  6  1  0  0  0  0
  6  7  1  0  0  0  0
  7  8  1  0  0  0  0
  8  9  1  0  0  0  0
  9 10  1  0  0  0  0
 10 11  1  0  0  0  0
 11 12  1  0  0  0  0
 12 13  1  0  0  0  0
 13 14  2  0  0  0  0
 13 15  1  0  0  0  0
 15 16  2  0  0  0  0
 16 17  1  0  0  0  0
 17 18  1  0  0  0  0
 18 19  1  0  0  0  0
 19 20  2  0  0  0  0
 19 21  1  0  0  0  0
 21 22  1  0  0  0  0
 22 23  2  0  0  0  0
 23 24  1  0  0  0  0
 24 25  2  0  0  0  0
 25 26  1  0  0  0  0
 22 26  1  0  0  0  0
 17 27  2  0  0  0  0
 27 28  1  0  0  0  0
 28 29  1  0  0  0  0
 30 29  1  6  0  0  0
 30 31  1  0  0  0  0
 31 32  1  0  0  0  0
 32 33  1  6  0  0  0
 33 34  1  0  0  0  0
 32 35  1  0  0  0  0
 35 36  1  1  0  0  0
 35 37  1  0  0  0  0
 37 38  1  6  0  0  0
 37 39  1  0  0  0  0
 30 39  1  0  0  0  0
 39 40  1  1  0  0  0
 28 41  2  0  0  0  0
 15 41  1  0  0  0  0
  8 42  1  0  0  0  0
 42 43  1  0  0  0  0
  5 43  1  0  0  0  0
M  END
> <DRUGBANK_ID>
DB03524

> <DRUG_GROUPS>
experimental

> <GENERIC_NAME>
N-{3-[4-(3-Amino-Propyl)-Piperazin-1-Yl]-Propyl}-3-(2-Thiophen-2-Yl-Acetylamino)-5-(3,4,5-Trihydroxy-6-Hydroxymethyl-Tetrahydro-Pyran-2-Yloxy)-Benzamide

> <CHEMICAL_FORMULA>
C29H43N5O8S

> <MOLECULAR_WEIGHT>
621.745

> <EXACT_MASS>
621.283234067

> <IUPAC_NAME>
N-{3-[4-(3-aminopropyl)piperazin-1-yl]propyl}-3-[2-(thiophen-2-yl)acetamido]-5-{[(2S,3R,4S,5S,6R)-3,4,5-trihydroxy-6-(hydroxymethyl)oxan-2-yl]oxy}benzamide

> <IUPAC_TRADITIONAL_NAME>
N-{3-[4-(3-aminopropyl)piperazin-1-yl]propyl}-3-[2-(thiophen-2-yl)acetamido]-5-{[(2S,3R,4S,5S,6R)-3,4,5-trihydroxy-6-(hydroxymethyl)oxan-2-yl]oxy}benzamide

> <INCHI_IDENTIFIER>
InChI=1S/C29H43N5O8S/c30-5-2-7-33-9-11-34(12-10-33)8-3-6-31-28(40)19-14-20(32-24(36)17-22-4-1-13-43-22)16-21(15-19)41-29-27(39)26(38)25(37)23(18-35)42-29/h1,4,13-16,23,25-27,29,35,37-39H,2-3,5-12,17-18,30H2,(H,31,40)(H,32,36)/t23-,25-,26+,27-,29-/m1/s1

> <INCHI_KEY>
InChIKey=ZIXIINLBMSXOQV-IOLXHVLYSA-N

> <SMILES>
NCCCN1CCN(CCCNC(=O)C2=CC(NC(=O)CC3=CC=CS3)=CC(O[C@@H]3O[C@H](CO)[C@@H](O)[C@H](O)[C@H]3O)=C2)CC1

> <JCHEM_ACCEPTOR_COUNT>
11

> <JCHEM_DONOR_COUNT>
7

> <JCHEM_ACIDIC_PKA>
12.16

> <JCHEM_BASIC_PKA>
10.17

> <JCHEM_PHYSIOLOGICAL_CHARGE>
2

> <ALOGPS_LOGP>
0.89

> <JCHEM_LOGP>
-1.4

> <ALOGPS_LOGS>
-3.6

> <JCHEM_POLARIZABILITY>
67.79

> <JCHEM_POLAR_SURFACE_AREA>
190.08

> <JCHEM_REFRACTIVITY>
162.38

> <JCHEM_ROTATABLE_BOND_COUNT>
14

> <ALOGPS_SOLUBILITY>
1.39e-01 g/l __ 

$$$$
