
  Mrv0541 02231217122D          

 21 22  0  0  1  0            999 V2000
    0.7145   -0.4125    0.0000 O   0  0  0  0  0  0  0  0  0  0  0  0
    0.7145   -1.2375    0.0000 C   0  0  2  0  0  0  0  0  0  0  0  0
    1.3819   -1.7224    0.0000 C   0  0  1  0  0  0  0  0  0  0  0  0
    2.1665   -1.4675    0.0000 O   0  0  0  0  0  0  0  0  0  0  0  0
    1.1270   -2.5070    0.0000 C   0  0  1  0  0  0  0  0  0  0  0  0
    0.3020   -2.5070    0.0000 O   0  0  0  0  0  0  0  0  0  0  0  0
    0.0470   -1.7224    0.0000 C   0  0  1  0  0  0  0  0  0  0  0  0
   -0.7376   -1.4675    0.0000 C   0  0  0  0  0  0  0  0  0  0  0  0
   -0.9091   -0.6605    0.0000 O   0  0  0  0  0  0  0  0  0  0  0  0
   -1.6937   -0.4056    0.0000 P   0  0  0  0  0  0  0  0  0  0  0  0
   -2.4784   -0.1506    0.0000 O   0  0  0  0  0  0  0  0  0  0  0  0
   -1.9487   -1.1902    0.0000 O   0  0  0  0  0  0  0  0  0  0  0  0
   -1.4388    0.3790    0.0000 O   0  0  0  0  0  0  0  0  0  0  0  0
    1.6119   -3.1745    0.0000 C   0  0  0  0  0  0  0  0  0  0  0  0
    2.4324   -3.0882    0.0000 C   0  0  0  0  0  0  0  0  0  0  0  0
    2.9173   -3.7557    0.0000 N   0  0  0  0  0  0  0  0  0  0  0  0
    2.5817   -4.5094    0.0000 C   0  0  0  0  0  0  0  0  0  0  0  0
    3.0667   -5.1768    0.0000 O   0  0  0  0  0  0  0  0  0  0  0  0
    1.7613   -4.5956    0.0000 N   0  0  0  0  0  0  0  0  0  0  0  0
    1.2763   -3.9282    0.0000 C   0  0  0  0  0  0  0  0  0  0  0  0
    0.4559   -4.0144    0.0000 O   0  0  0  0  0  0  0  0  0  0  0  0
  2  1  1  6  0  0  0
  2  3  1  0  0  0  0
  3  4  1  1  0  0  0
  3  5  1  0  0  0  0
  5  6  1  0  0  0  0
  6  7  1  0  0  0  0
  2  7  1  0  0  0  0
  7  8  1  1  0  0  0
  8  9  1  0  0  0  0
  9 10  1  0  0  0  0
 10 11  1  0  0  0  0
 10 12  1  0  0  0  0
 10 13  2  0  0  0  0
  5 14  1  6  0  0  0
 14 15  2  0  0  0  0
 15 16  1  0  0  0  0
 16 17  1  0  0  0  0
 17 18  2  0  0  0  0
 17 19  1  0  0  0  0
 19 20  1  0  0  0  0
 14 20  1  0  0  0  0
 20 21  2  0  0  0  0
M  END
> <DRUGBANK_ID>
DB03829

> <DRUG_GROUPS>
experimental

> <GENERIC_NAME>
Pseudouridine-5'-Monophosphate

> <CHEMICAL_FORMULA>
C9H13N2O9P

> <MOLECULAR_WEIGHT>
324.1813

> <EXACT_MASS>
324.035866536

> <IUPAC_NAME>
{[(2S,3R,4R,5S)-5-(2,4-dioxo-1,2,3,4-tetrahydropyrimidin-5-yl)-3,4-dihydroxyoxolan-2-yl]methoxy}phosphonic acid

> <IUPAC_TRADITIONAL_NAME>
[(2S,3R,4R,5S)-5-(2,4-dioxo-1,3-dihydropyrimidin-5-yl)-3,4-dihydroxyoxolan-2-yl]methoxyphosphonic acid

> <INCHI_IDENTIFIER>
InChI=1S/C9H13N2O9P/c12-5-4(2-19-21(16,17)18)20-7(6(5)13)3-1-10-9(15)11-8(3)14/h1,4-7,12-13H,2H2,(H2,16,17,18)(H2,10,11,14,15)/t4-,5-,6+,7-/m0/s1

> <INCHI_KEY>
InChIKey=MOBMOJGXNHLLIR-YTLHQDLWSA-N

> <SMILES>
O[C@@H]1[C@@H](O)[C@@H](O[C@H]1COP(O)(O)=O)C1=CNC(=O)NC1=O

> <JCHEM_ACCEPTOR_COUNT>
8

> <JCHEM_DONOR_COUNT>
6

> <JCHEM_ACIDIC_PKA>
1.23

> <JCHEM_BASIC_PKA>
-3.6

> <JCHEM_PHYSIOLOGICAL_CHARGE>
-2

> <ALOGPS_LOGP>
-1.9

> <JCHEM_LOGP>
-3.2

> <ALOGPS_LOGS>
-1.6

> <JCHEM_POLARIZABILITY>
26.45

> <JCHEM_POLAR_SURFACE_AREA>
174.65

> <JCHEM_REFRACTIVITY>
63.31

> <JCHEM_ROTATABLE_BOND_COUNT>
4

> <ALOGPS_SOLUBILITY>
7.51e+00 g/l __ 

$$$$
