ZRA
  Mrv0541 02231217002D          

 29 29  0  0  0  0            999 V2000
    0.6950    0.6404    0.0000 C   0  0  0  0  0  0  0  0  0  0  0  0
    1.9325    1.3549    0.0000 C   0  0  0  0  0  0  0  0  0  0  0  0
    2.3450    2.0693    0.0000 C   0  0  0  0  0  0  0  0  0  0  0  0
    1.9325    2.7838    0.0000 C   0  0  0  0  0  0  0  0  0  0  0  0
    2.3450    3.4983    0.0000 C   0  0  0  0  0  0  0  0  0  0  0  0
    3.1700    3.4983    0.0000 C   0  0  0  0  0  0  0  0  0  0  0  0
    3.5825    2.7838    0.0000 C   0  0  0  0  0  0  0  0  0  0  0  0
    3.1700    2.0693    0.0000 C   0  0  0  0  0  0  0  0  0  0  0  0
   -0.5425   -0.0741    0.0000 C   0  0  1  0  0  0  0  0  0  0  0  0
   -1.3675   -0.0741    0.0000 C   0  0  0  0  0  0  0  0  0  0  0  0
   -1.7800   -0.7885    0.0000 C   0  0  0  0  0  0  0  0  0  0  0  0
   -2.6050   -0.7885    0.0000 C   0  0  0  0  0  0  0  0  0  0  0  0
   -3.0175   -1.5030    0.0000 N   0  0  0  0  0  0  0  0  0  0  0  0
   -3.8425   -1.5030    0.0000 C   0  0  0  0  0  0  0  0  0  0  0  0
   -4.2550   -2.2175    0.0000 N   0  0  0  0  0  0  0  0  0  0  0  0
   -4.2550   -0.7885    0.0000 N   0  0  0  0  0  0  0  0  0  0  0  0
   -0.1300   -0.7885    0.0000 C   0  0  0  0  0  0  0  0  0  0  0  0
    1.1075   -1.5030    0.0000 C   0  0  1  0  0  0  0  0  0  0  0  0
    0.6950   -2.2175    0.0000 C   0  0  0  0  0  0  0  0  0  0  0  0
    1.9325   -1.5030    0.0000 C   0  0  0  0  0  0  0  0  0  0  0  0
    2.3450   -0.7885    0.0000 C   0  0  0  0  0  0  0  0  0  0  0  0
   -0.1300    0.6404    0.0000 N   0  0  0  0  0  0  0  0  0  0  0  0
    0.6950   -0.7885    0.0000 N   0  0  0  0  0  0  0  0  0  0  0  0
    1.1075   -0.0741    0.0000 O   0  0  0  0  0  0  0  0  0  0  0  0
    1.1075    1.3549    0.0000 O   0  0  0  0  0  0  0  0  0  0  0  0
   -0.5425   -1.5030    0.0000 O   0  0  0  0  0  0  0  0  0  0  0  0
    2.3450   -2.2175    0.0000 O   0  0  0  0  0  0  0  0  0  0  0  0
   -0.4411    0.5010    0.0000 H   0  0  0  0  0  0  0  0  0  0  0  0
    1.3995   -2.0087    0.0000 H   0  0  0  0  0  0  0  0  0  0  0  0
  1 22  1  0  0  0  0
  1 24  2  0  0  0  0
  1 25  1  0  0  0  0
  2  3  1  0  0  0  0
  2 25  1  0  0  0  0
  3  4  2  0  0  0  0
  3  8  1  0  0  0  0
  4  5  1  0  0  0  0
  5  6  2  0  0  0  0
  6  7  1  0  0  0  0
  7  8  2  0  0  0  0
  9 10  1  0  0  0  0
  9 17  1  0  0  0  0
  9 22  1  6  0  0  0
  9 28  1  1  0  0  0
 10 11  1  0  0  0  0
 11 12  1  0  0  0  0
 12 13  1  0  0  0  0
 13 14  1  0  0  0  0
 14 15  1  0  0  0  0
 14 16  1  0  0  0  0
 17 23  1  0  0  0  0
 17 26  2  0  0  0  0
 18 19  1  6  0  0  0
 18 20  1  0  0  0  0
 18 23  1  0  0  0  0
 18 29  1  1  0  0  0
 20 21  1  0  0  0  0
 20 27  2  0  0  0  0
M  END
> <DRUGBANK_ID>
DB03536

> <DRUG_GROUPS>
experimental

> <GENERIC_NAME>
Benzoyl-Arginine-Alanine-Methyl Ketone

> <CHEMICAL_FORMULA>
C18H29N5O4

> <MOLECULAR_WEIGHT>
379.454

> <EXACT_MASS>
379.221954441

> <IUPAC_NAME>
benzyl N-[(1S)-4-[(diaminomethyl)amino]-1-{[(2S)-3-oxobutan-2-yl]carbamoyl}butyl]carbamate

> <IUPAC_TRADITIONAL_NAME>
benzyl N-[(1S)-4-[(diaminomethyl)amino]-1-{[(2S)-3-oxobutan-2-yl]carbamoyl}butyl]carbamate

> <INCHI_IDENTIFIER>
InChI=1S/C18H29N5O4/c1-12(13(2)24)22-16(25)15(9-6-10-21-17(19)20)23-18(26)27-11-14-7-4-3-5-8-14/h3-5,7-8,12,15,17,21H,6,9-11,19-20H2,1-2H3,(H,22,25)(H,23,26)/t12-,15-/m0/s1

> <INCHI_KEY>
InChIKey=SLLMMFWUJVANSC-WFASDCNBSA-N

> <SMILES>
[H][C@@](C)(NC(=O)[C@]([H])(CCCNC(N)N)NC(=O)OCC1=CC=CC=C1)C(C)=O

> <JCHEM_ACCEPTOR_COUNT>
6

> <JCHEM_DONOR_COUNT>
5

> <JCHEM_ACIDIC_PKA>
12.85

> <JCHEM_BASIC_PKA>
6.71

> <JCHEM_PHYSIOLOGICAL_CHARGE>
0

> <ALOGPS_LOGP>
-0.76

> <JCHEM_LOGP>
0.35

> <ALOGPS_LOGS>
-3

> <JCHEM_POLARIZABILITY>
41.23

> <JCHEM_POLAR_SURFACE_AREA>
148.57

> <JCHEM_REFRACTIVITY>
100.65

> <JCHEM_ROTATABLE_BOND_COUNT>
12

> <ALOGPS_SOLUBILITY>
3.39e-01 g/l __ 

$$$$
