
  Mrv0541 02231217032D          

 11 11  0  0  0  0            999 V2000
    0.7145   -1.2375    0.0000 O   0  0  0  0  0  0  0  0  0  0  0  0
    0.7145   -0.4125    0.0000 C   0  0  0  0  0  0  0  0  0  0  0  0
    0.0000    0.0000    0.0000 C   0  0  0  0  0  0  0  0  0  0  0  0
    0.0000    0.8250    0.0000 C   0  0  0  0  0  0  0  0  0  0  0  0
    0.7145    1.2375    0.0000 C   0  0  0  0  0  0  0  0  0  0  0  0
    1.4289    0.8250    0.0000 C   0  0  0  0  0  0  0  0  0  0  0  0
    1.4289    0.0000    0.0000 C   0  0  0  0  0  0  0  0  0  0  0  0
    0.7145    2.0625    0.0000 C   0  0  0  0  0  0  0  0  0  0  0  0
    0.7145    2.8875    0.0000 F   0  0  0  0  0  0  0  0  0  0  0  0
    1.5395    2.0625    0.0000 F   0  0  0  0  0  0  0  0  0  0  0  0
   -0.1105    2.0625    0.0000 F   0  0  0  0  0  0  0  0  0  0  0  0
  1  2  1  0  0  0  0
  2  3  2  0  0  0  0
  3  4  1  0  0  0  0
  4  5  2  0  0  0  0
  5  6  1  0  0  0  0
  6  7  2  0  0  0  0
  2  7  1  0  0  0  0
  5  8  1  0  0  0  0
  8  9  1  0  0  0  0
  8 10  1  0  0  0  0
  8 11  1  0  0  0  0
M  END
> <DRUGBANK_ID>
DB03610

> <DRUG_GROUPS>
experimental

> <GENERIC_NAME>
Alpha,Alpha,Alpha-Trifluoro-P-Cresol

> <CHEMICAL_FORMULA>
C7H5F3O

> <MOLECULAR_WEIGHT>
162.1092

> <EXACT_MASS>
162.029249397

> <IUPAC_NAME>
4-(trifluoromethyl)phenol

> <IUPAC_TRADITIONAL_NAME>
α,α,α-trifluoro-P-cresol

> <INCHI_IDENTIFIER>
InChI=1S/C7H5F3O/c8-7(9,10)5-1-3-6(11)4-2-5/h1-4,11H

> <INCHI_KEY>
InChIKey=BAYGVMXZJBFEMB-UHFFFAOYSA-N

> <SMILES>
OC1=CC=C(C=C1)C(F)(F)F

> <JCHEM_ACCEPTOR_COUNT>
1

> <JCHEM_DONOR_COUNT>
1

> <JCHEM_ACIDIC_PKA>
9.39

> <JCHEM_BASIC_PKA>
-6

> <JCHEM_PHYSIOLOGICAL_CHARGE>
0

> <ALOGPS_LOGP>
2.65

> <JCHEM_LOGP>
2.55

> <ALOGPS_LOGS>
-1.5

> <JCHEM_POLARIZABILITY>
12.23

> <JCHEM_POLAR_SURFACE_AREA>
20.23

> <JCHEM_REFRACTIVITY>
34.01

> <JCHEM_ROTATABLE_BOND_COUNT>
1

> <ALOGPS_SOLUBILITY>
5.06e+00 g/l __ 

$$$$
