
  Mrv0541 02231216432D          

 21 23  0  0  1  0            999 V2000
    4.0668    2.3479    0.0000 C   0  0  0  0  0  0  0  0  0  0  0  0
    3.3523    1.9354    0.0000 C   0  0  0  0  0  0  0  0  0  0  0  0
    3.3523    1.1104    0.0000 C   0  0  0  0  0  0  0  0  0  0  0  0
    2.6378    0.6979    0.0000 C   0  0  0  0  0  0  0  0  0  0  0  0
    1.9233    1.1104    0.0000 C   0  0  0  0  0  0  0  0  0  0  0  0
    1.1387    0.8555    0.0000 N   0  0  0  0  0  0  0  0  0  0  0  0
    0.6538    1.5229    0.0000 C   0  0  0  0  0  0  0  0  0  0  0  0
    1.1387    2.1904    0.0000 N   0  0  0  0  0  0  0  0  0  0  0  0
    1.9233    1.9354    0.0000 C   0  0  0  0  0  0  0  0  0  0  0  0
    2.6378    2.3479    0.0000 C   0  0  0  0  0  0  0  0  0  0  0  0
   -0.1712    1.5229    0.0000 C   0  0  1  0  0  0  0  0  0  0  0  0
   -0.5837    0.8085    0.0000 O   0  0  0  0  0  0  0  0  0  0  0  0
   -1.4087    0.8085    0.0000 C   0  0  1  0  0  0  0  0  0  0  0  0
   -1.8212    0.0940    0.0000 C   0  0  0  0  0  0  0  0  0  0  0  0
   -1.4087   -0.6205    0.0000 O   0  0  0  0  0  0  0  0  0  0  0  0
   -1.8212    1.5229    0.0000 C   0  0  2  0  0  0  0  0  0  0  0  0
   -2.6462    1.5229    0.0000 O   0  0  0  0  0  0  0  0  0  0  0  0
   -1.4087    2.2374    0.0000 C   0  0  1  0  0  0  0  0  0  0  0  0
   -1.8212    2.9519    0.0000 O   0  0  0  0  0  0  0  0  0  0  0  0
   -0.5837    2.2374    0.0000 C   0  0  2  0  0  0  0  0  0  0  0  0
   -0.1712    2.9519    0.0000 O   0  0  0  0  0  0  0  0  0  0  0  0
  1  2  1  0  0  0  0
  2  3  4  0  0  0  0
  3  4  4  0  0  0  0
  4  5  4  0  0  0  0
  5  6  4  0  0  0  0
  6  7  4  0  0  0  0
  7  8  4  0  0  0  0
  8  9  4  0  0  0  0
  5  9  4  0  0  0  0
  9 10  4  0  0  0  0
  2 10  4  0  0  0  0
 11  7  1  1  0  0  0
 11 12  1  0  0  0  0
 12 13  1  0  0  0  0
 13 14  1  1  0  0  0
 14 15  1  0  0  0  0
 13 16  1  0  0  0  0
 16 17  1  6  0  0  0
 16 18  1  0  0  0  0
 18 19  1  1  0  0  0
 18 20  1  0  0  0  0
 11 20  1  0  0  0  0
 20 21  1  6  0  0  0
M  END
> <DRUGBANK_ID>
DB03133

> <DRUG_GROUPS>
experimental

> <GENERIC_NAME>
2-(Beta-D-Glucopyranosyl)-5-Methyl-1,2,3-Benzimidazole

> <CHEMICAL_FORMULA>
C14H17N2O5

> <MOLECULAR_WEIGHT>
293.2952

> <EXACT_MASS>
293.113746664

> <IUPAC_NAME>
(2S,3R,4S,5S,6R)-2-(hydroxymethyl)-6-(5-methyl-1,3-benzodiazol-2-yl)oxane-3,4,5-triol

> <IUPAC_TRADITIONAL_NAME>
(2S,3R,4S,5S,6R)-2-(hydroxymethyl)-6-(5-methyl-1,3-benzodiazol-2-yl)oxane-3,4,5-triol

> <SMILES>
Cc1ccc2nc(nc2c1)[C@H]1O[C@@H](CO)[C@H](O)[C@@H](O)[C@@H]1O

> <JCHEM_ACCEPTOR_COUNT>
7

> <JCHEM_DONOR_COUNT>
4

> <JCHEM_ACIDIC_PKA>
12.45

> <JCHEM_BASIC_PKA>
1.29

> <JCHEM_PHYSIOLOGICAL_CHARGE>
0

> <ALOGPS_LOGP>
-0.38

> <JCHEM_LOGP>
-0.25

> <ALOGPS_LOGS>
-1.2

> <JCHEM_POLARIZABILITY>
30.47

> <JCHEM_POLAR_SURFACE_AREA>
115.93

> <JCHEM_REFRACTIVITY>
71.83

> <JCHEM_ROTATABLE_BOND_COUNT>
2

> <ALOGPS_SOLUBILITY>
2.04e+01 g/l __ 

$$$$
