
  Mrv0541 02231217072D          

 13 13  0  0  0  0            999 V2000
    2.8579    0.0000    0.0000 C   0  0  0  0  0  0  0  0  0  0  0  0
    2.1434   -0.4125    0.0000 N   0  0  0  0  0  0  0  0  0  0  0  0
    1.4289    0.0000    0.0000 C   0  0  0  0  0  0  0  0  0  0  0  0
    0.7145   -0.4125    0.0000 C   0  0  0  0  0  0  0  0  0  0  0  0
    0.0000    0.0000    0.0000 C   0  0  0  0  0  0  0  0  0  0  0  0
   -0.7145   -0.4125    0.0000 O   0  0  0  0  0  0  0  0  0  0  0  0
    0.0000    0.8250    0.0000 N   0  0  0  0  0  0  0  0  0  0  0  0
    0.7145    1.2375    0.0000 C   0  0  0  0  0  0  0  0  0  0  0  0
    0.7145    2.0625    0.0000 N   0  0  0  0  0  0  0  0  0  0  0  0
    1.4289    0.8250    0.0000 N   0  0  0  0  0  0  0  0  0  0  0  0
    0.7145   -1.2375    0.0000 N   0  3  0  0  0  0  0  0  0  0  0  0
    1.4289   -1.6500    0.0000 O   0  5  0  0  0  0  0  0  0  0  0  0
    0.0000   -1.6500    0.0000 O   0  0  0  0  0  0  0  0  0  0  0  0
  1  2  1  0  0  0  0
  2  3  1  0  0  0  0
  3  4  2  0  0  0  0
  4  5  1  0  0  0  0
  5  6  2  0  0  0  0
  5  7  1  0  0  0  0
  7  8  1  0  0  0  0
  8  9  1  0  0  0  0
  8 10  2  0  0  0  0
  3 10  1  0  0  0  0
  4 11  1  0  0  0  0
 11 12  1  0  0  0  0
 11 13  2  0  0  0  0
M  END
> <DRUGBANK_ID>
DB03705

> <DRUG_GROUPS>
experimental

> <GENERIC_NAME>
6-Methylamino-5-Nitroisocytosine

> <CHEMICAL_FORMULA>
C5H7N5O3

> <MOLECULAR_WEIGHT>
185.1408

> <EXACT_MASS>
185.054889115

> <IUPAC_NAME>
2-amino-6-(methylamino)-5-nitro-3,4-dihydropyrimidin-4-one

> <IUPAC_TRADITIONAL_NAME>
2-amino-6-(methylamino)-5-nitro-3H-pyrimidin-4-one

> <INCHI_IDENTIFIER>
InChI=1S/C5H7N5O3/c1-7-3-2(10(12)13)4(11)9-5(6)8-3/h1H3,(H4,6,7,8,9,11)

> <INCHI_KEY>
InChIKey=NMCMUSAXKISTKW-UHFFFAOYSA-N

> <SMILES>
CNC1=C(C(=O)NC(N)=N1)[N+]([O-])=O

> <JCHEM_ACCEPTOR_COUNT>
6

> <JCHEM_DONOR_COUNT>
3

> <JCHEM_ACIDIC_PKA>
10.73

> <JCHEM_BASIC_PKA>
3.01

> <JCHEM_PHYSIOLOGICAL_CHARGE>
0

> <ALOGPS_LOGP>
-0.77

> <JCHEM_LOGP>
-1.1

> <ALOGPS_LOGS>
-1.9

> <JCHEM_POLARIZABILITY>
15.72

> <JCHEM_POLAR_SURFACE_AREA>
125.33

> <JCHEM_REFRACTIVITY>
52.15

> <JCHEM_ROTATABLE_BOND_COUNT>
2

> <ALOGPS_SOLUBILITY>
2.27e+00 g/l __ 

$$$$
