
  Mrv0541 02231216442D          

 14 13  0  0  1  0            999 V2000
    2.9980   -1.7309    0.0000 C   0  0  0  0  0  0  0  0  0  0  0  0
    3.7125   -2.1434    0.0000 N   0  0  0  0  0  0  0  0  0  0  0  0
    3.7125   -2.9684    0.0000 C   0  0  0  0  0  0  0  0  0  0  0  0
    4.4270   -1.7309    0.0000 C   0  0  0  0  0  0  0  0  0  0  0  0
    5.1414   -2.1434    0.0000 C   0  0  0  0  0  0  0  0  0  0  0  0
    5.8559   -1.7309    0.0000 O   0  0  0  0  0  0  0  0  0  0  0  0
    6.5704   -2.1434    0.0000 P   0  0  2  0  0  0  0  0  0  0  0  0
    6.1579   -2.8579    0.0000 O   0  0  0  0  0  0  0  0  0  0  0  0
    6.9829   -1.4289    0.0000 O   0  0  0  0  0  0  0  0  0  0  0  0
    7.2849   -2.5559    0.0000 O   0  0  0  0  0  0  0  0  0  0  0  0
    7.9993   -2.1434    0.0000 P   0  0  0  0  0  0  0  0  0  0  0  0
    8.7138   -1.7309    0.0000 O   0  0  0  0  0  0  0  0  0  0  0  0
    8.4118   -2.8579    0.0000 O   0  0  0  0  0  0  0  0  0  0  0  0
    7.5868   -1.4289    0.0000 O   0  0  0  0  0  0  0  0  0  0  0  0
  1  2  1  0  0  0  0
  2  3  1  0  0  0  0
  2  4  1  0  0  0  0
  4  5  1  0  0  0  0
  5  6  1  0  0  0  0
  7  6  1  6  0  0  0
  7  8  1  1  0  0  0
  7  9  2  0  0  0  0
  7 10  1  0  0  0  0
 10 11  1  0  0  0  0
 11 12  1  0  0  0  0
 11 13  1  0  0  0  0
 11 14  2  0  0  0  0
M  END
> <DRUGBANK_ID>
DB03165

> <DRUG_GROUPS>
experimental

> <GENERIC_NAME>
2-Dimethylamino-Ethyl-Diphosphate

> <CHEMICAL_FORMULA>
C4H13NO7P2

> <MOLECULAR_WEIGHT>
249.096

> <EXACT_MASS>
249.016724799

> <IUPAC_NAME>
({[2-(dimethylamino)ethoxy](hydroxy)phosphoryl}oxy)phosphonic acid

> <IUPAC_TRADITIONAL_NAME>
[2-(dimethylamino)ethoxy(hydroxy)phosphoryl]oxyphosphonic acid

> <INCHI_IDENTIFIER>
InChI=1S/C4H13NO7P2/c1-5(2)3-4-11-14(9,10)12-13(6,7)8/h3-4H2,1-2H3,(H,9,10)(H2,6,7,8)

> <INCHI_KEY>
InChIKey=QGKJQRINUQGSJM-UHFFFAOYSA-N

> <SMILES>
CN(C)CCO[P@](O)(=O)OP(O)(O)=O

> <JCHEM_ACCEPTOR_COUNT>
6

> <JCHEM_DONOR_COUNT>
3

> <JCHEM_ACIDIC_PKA>
1.76

> <JCHEM_BASIC_PKA>
9.1

> <JCHEM_PHYSIOLOGICAL_CHARGE>
-1

> <ALOGPS_LOGP>
-0.51

> <JCHEM_LOGP>
-2.7

> <ALOGPS_LOGS>
-1.2

> <JCHEM_POLARIZABILITY>
19.73

> <JCHEM_POLAR_SURFACE_AREA>
116.53

> <JCHEM_REFRACTIVITY>
48.03

> <JCHEM_ROTATABLE_BOND_COUNT>
6

> <ALOGPS_SOLUBILITY>
1.46e+01 g/l __ 

$$$$
