
  Mrv0541 02231217192D          

 12 13  0  0  1  0            999 V2000
    0.0000    0.0000    0.0000 N   0  0  0  0  0  0  0  0  0  0  0  0
    0.7145   -0.4125    0.0000 C   0  0  1  0  0  0  0  0  0  0  0  0
    1.4289    0.0000    0.0000 O   0  0  0  0  0  0  0  0  0  0  0  0
    2.1434   -0.4125    0.0000 C   0  0  0  0  0  0  0  0  0  0  0  0
    2.8579    0.0000    0.0000 C   0  0  0  0  0  0  0  0  0  0  0  0
    3.5724   -0.4125    0.0000 C   0  0  0  0  0  0  0  0  0  0  0  0
    3.5724   -1.2375    0.0000 C   0  0  0  0  0  0  0  0  0  0  0  0
    2.8579   -1.6500    0.0000 C   0  0  0  0  0  0  0  0  0  0  0  0
    2.1434   -1.2375    0.0000 C   0  0  0  0  0  0  0  0  0  0  0  0
    1.4289   -1.6500    0.0000 C   0  0  1  0  0  0  0  0  0  0  0  0
    1.4289   -2.4750    0.0000 O   0  0  0  0  0  0  0  0  0  0  0  0
    0.7145   -1.2375    0.0000 S   0  0  0  0  0  0  0  0  0  0  0  0
  2  1  1  1  0  0  0
  2  3  1  0  0  0  0
  3  4  1  0  0  0  0
  4  5  2  0  0  0  0
  5  6  1  0  0  0  0
  6  7  2  0  0  0  0
  7  8  1  0  0  0  0
  8  9  2  0  0  0  0
  4  9  1  0  0  0  0
  9 10  1  0  0  0  0
 10 11  1  1  0  0  0
 10 12  1  0  0  0  0
  2 12  1  0  0  0  0
M  END
> <DRUGBANK_ID>
DB03972

> <DRUG_GROUPS>
experimental

> <GENERIC_NAME>
2-Amino-4h-1,3-Benzoxathiin-4-Ol

> <CHEMICAL_FORMULA>
C8H9NO2S

> <MOLECULAR_WEIGHT>
183.228

> <EXACT_MASS>
183.035399227

> <IUPAC_NAME>
(2S,4S)-2-amino-2,4-dihydro-1,3-benzoxathiin-4-ol

> <IUPAC_TRADITIONAL_NAME>
(2S,4S)-2-amino-2,4-dihydro-1,3-benzoxathiin-4-ol

> <INCHI_IDENTIFIER>
InChI=1S/C8H9NO2S/c9-8-11-6-4-2-1-3-5(6)7(10)12-8/h1-4,7-8,10H,9H2/t7-,8-/m0/s1

> <INCHI_KEY>
InChIKey=DVFUKUONLVBBEH-YUMQZZPRSA-N

> <SMILES>
N[C@H]1OC2=CC=CC=C2[C@@H](O)S1

> <JCHEM_ACCEPTOR_COUNT>
3

> <JCHEM_DONOR_COUNT>
2

> <JCHEM_ACIDIC_PKA>
12.87

> <JCHEM_BASIC_PKA>
5.98

> <JCHEM_PHYSIOLOGICAL_CHARGE>
0

> <ALOGPS_LOGP>
-0.07

> <JCHEM_LOGP>
1.99

> <ALOGPS_LOGS>
-1.2

> <JCHEM_POLARIZABILITY>
17.95

> <JCHEM_POLAR_SURFACE_AREA>
55.48

> <JCHEM_REFRACTIVITY>
47.57

> <JCHEM_ROTATABLE_BOND_COUNT>
0

> <ALOGPS_SOLUBILITY>
1.25e+01 g/l __ 

$$$$
