
  Mrv0541 02231216582D          

 11 10  0  0  1  0            999 V2000
    1.0461    1.4289    0.0000 C   0  0  0  0  0  0  0  0  0  0  0  0
    1.7605    1.8414    0.0000 N   0  0  0  0  0  0  0  0  0  0  0  0
    2.4750    1.4289    0.0000 C   0  0  0  0  0  0  0  0  0  0  0  0
    2.4750    0.6039    0.0000 O   0  0  0  0  0  0  0  0  0  0  0  0
    3.1895    1.8414    0.0000 C   0  0  0  0  0  0  0  0  0  0  0  0
    3.9039    1.4289    0.0000 C   0  0  0  0  0  0  0  0  0  0  0  0
    4.6184    1.8414    0.0000 C   0  0  2  0  0  0  0  0  0  0  0  0
    4.6184    2.6664    0.0000 N   0  0  0  0  0  0  0  0  0  0  0  0
    5.3329    1.4289    0.0000 C   0  0  0  0  0  0  0  0  0  0  0  0
    6.0474    1.8414    0.0000 O   0  0  0  0  0  0  0  0  0  0  0  0
    5.3329    0.6039    0.0000 O   0  0  0  0  0  0  0  0  0  0  0  0
  1  2  1  0  0  0  0
  2  3  1  0  0  0  0
  3  4  2  0  0  0  0
  3  5  1  0  0  0  0
  5  6  1  0  0  0  0
  6  7  1  0  0  0  0
  7  8  1  6  0  0  0
  7  9  1  0  0  0  0
  9 10  1  0  0  0  0
  9 11  2  0  0  0  0
M  END
> <DRUGBANK_ID>
DB03473

> <DRUG_GROUPS>
experimental

> <GENERIC_NAME>
N5-Methylglutamine

> <CHEMICAL_FORMULA>
C6H12N2O3

> <MOLECULAR_WEIGHT>
160.1711

> <EXACT_MASS>
160.08479226

> <IUPAC_NAME>
(2S)-2-amino-4-(methylcarbamoyl)butanoic acid

> <IUPAC_TRADITIONAL_NAME>
N5-methylglutamine

> <INCHI_IDENTIFIER>
InChI=1S/C6H12N2O3/c1-8-5(9)3-2-4(7)6(10)11/h4H,2-3,7H2,1H3,(H,8,9)(H,10,11)/t4-/m0/s1

> <INCHI_KEY>
InChIKey=ONXPDKGXOOORHB-BYPYZUCNSA-N

> <SMILES>
CNC(=O)CC[C@H](N)C(O)=O

> <JCHEM_ACCEPTOR_COUNT>
4

> <JCHEM_DONOR_COUNT>
3

> <JCHEM_ACIDIC_PKA>
2.26

> <JCHEM_BASIC_PKA>
9.31

> <JCHEM_PHYSIOLOGICAL_CHARGE>
0

> <ALOGPS_LOGP>
-2.9

> <JCHEM_LOGP>
-3.8

> <ALOGPS_LOGS>
-0.45

> <JCHEM_POLARIZABILITY>
15.86

> <JCHEM_POLAR_SURFACE_AREA>
92.42

> <JCHEM_REFRACTIVITY>
38.01

> <JCHEM_ROTATABLE_BOND_COUNT>
4

> <ALOGPS_SOLUBILITY>
5.65e+01 g/l __ 

$$$$
