
  Mrv0541 02231217102D          

  5  4  0  0  0  0            999 V2000
    0.8250    1.4289    0.0000 C   0  0  0  0  0  0  0  0  0  0  0  0
    1.2375    0.7145    0.0000 C   0  0  0  0  0  0  0  0  0  0  0  0
    0.8250    0.0000    0.0000 C   0  0  0  0  0  0  0  0  0  0  0  0
    1.2375   -0.7145    0.0000 O   0  0  0  0  0  0  0  0  0  0  0  0
    0.0000    0.0000    0.0000 O   0  0  0  0  0  0  0  0  0  0  0  0
  1  2  1  0  0  0  0
  2  3  1  0  0  0  0
  3  4  1  0  0  0  0
  3  5  2  0  0  0  0
M  END
> <DRUGBANK_ID>
DB03766

> <DRUG_GROUPS>
experimental

> <GENERIC_NAME>
Propanoic Acid

> <CHEMICAL_FORMULA>
C3H6O2

> <MOLECULAR_WEIGHT>
74.0785

> <EXACT_MASS>
74.036779436

> <IUPAC_NAME>
propanoic acid

> <IUPAC_TRADITIONAL_NAME>
propanoic acid

> <INCHI_IDENTIFIER>
InChI=1S/C3H6O2/c1-2-3(4)5/h2H2,1H3,(H,4,5)

> <INCHI_KEY>
InChIKey=XBDQKXXYIPTUBI-UHFFFAOYSA-N

> <SMILES>
CCC(O)=O

> <JCHEM_ACCEPTOR_COUNT>
2

> <JCHEM_DONOR_COUNT>
1

> <JCHEM_ACIDIC_PKA>
4.75

> <JCHEM_PHYSIOLOGICAL_CHARGE>
-1

> <ALOGPS_LOGP>
0.31

> <JCHEM_LOGP>
0.48

> <ALOGPS_LOGS>
0.68

> <JCHEM_POLARIZABILITY>
7.24

> <JCHEM_POLAR_SURFACE_AREA>
37.3

> <JCHEM_REFRACTIVITY>
17.27

> <JCHEM_ROTATABLE_BOND_COUNT>
1

> <ALOGPS_SOLUBILITY>
3.52e+02 g/l __ 

$$$$
