PPY
  Mrv0541 02231217152D          

 12 12  0  0  0  0            999 V2000
    1.2809    1.4267    0.0000 C   0  0  0  0  0  0  0  0  0  0  0  0
    1.2809    2.2517    0.0000 O   0  0  0  0  0  0  0  0  0  0  0  0
    1.9954    1.0142    0.0000 O   0  0  0  0  0  0  0  0  0  0  0  0
    0.5664    1.0142    0.0000 C   0  0  0  0  0  0  0  0  0  0  0  0
   -0.1481    1.4267    0.0000 O   0  0  0  0  0  0  0  0  0  0  0  0
    0.5664    0.1892    0.0000 C   0  0  0  0  0  0  0  0  0  0  0  0
   -0.1481   -0.2233    0.0000 C   0  0  0  0  0  0  0  0  0  0  0  0
   -0.1481   -1.0483    0.0000 C   0  0  0  0  0  0  0  0  0  0  0  0
   -0.8625   -1.4608    0.0000 C   0  0  0  0  0  0  0  0  0  0  0  0
   -1.5770   -1.0483    0.0000 C   0  0  0  0  0  0  0  0  0  0  0  0
   -1.5770   -0.2233    0.0000 C   0  0  0  0  0  0  0  0  0  0  0  0
   -0.8625    0.1892    0.0000 C   0  0  0  0  0  0  0  0  0  0  0  0
  1  2  2  0  0  0  0
  1  3  1  0  0  0  0
  1  4  1  0  0  0  0
  4  5  2  0  0  0  0
  4  6  1  0  0  0  0
  6  7  1  0  0  0  0
  7  8  2  0  0  0  0
  7 12  1  0  0  0  0
  8  9  1  0  0  0  0
  9 10  2  0  0  0  0
 10 11  1  0  0  0  0
 11 12  2  0  0  0  0
M  END
> <DRUGBANK_ID>
DB03884

> <DRUG_GROUPS>
experimental

> <GENERIC_NAME>
3-Phenylpyruvic Acid

> <CHEMICAL_FORMULA>
C9H8O3

> <MOLECULAR_WEIGHT>
164.158

> <EXACT_MASS>
164.047344122

> <IUPAC_NAME>
2-oxo-3-phenylpropanoic acid

> <IUPAC_TRADITIONAL_NAME>
3-phenylpyruvic acid

> <INCHI_IDENTIFIER>
InChI=1S/C9H8O3/c10-8(9(11)12)6-7-4-2-1-3-5-7/h1-5H,6H2,(H,11,12)

> <INCHI_KEY>
InChIKey=BTNMPGBKDVTSJY-UHFFFAOYSA-N

> <SMILES>
OC(=O)C(=O)CC1=CC=CC=C1

> <JCHEM_ACCEPTOR_COUNT>
3

> <JCHEM_DONOR_COUNT>
1

> <JCHEM_ACIDIC_PKA>
3.33

> <JCHEM_BASIC_PKA>
-9.8

> <JCHEM_PHYSIOLOGICAL_CHARGE>
-1

> <ALOGPS_LOGP>
1.3

> <JCHEM_LOGP>
1.9

> <ALOGPS_LOGS>
-2.2

> <JCHEM_POLARIZABILITY>
15.75

> <JCHEM_POLAR_SURFACE_AREA>
54.37

> <JCHEM_REFRACTIVITY>
42.71

> <JCHEM_ROTATABLE_BOND_COUNT>
3

> <ALOGPS_SOLUBILITY>
9.32e-01 g/l __ 

$$$$
