
  Mrv0541 02231216392D          

  9  9  0  0  0  0            999 V2000
    2.1434    1.2375    0.0000 N   0  0  0  0  0  0  0  0  0  0  0  0
    1.4289    0.8250    0.0000 C   0  0  0  0  0  0  0  0  0  0  0  0
    1.4289    0.0000    0.0000 C   0  0  0  0  0  0  0  0  0  0  0  0
    0.7145   -0.4125    0.0000 C   0  0  0  0  0  0  0  0  0  0  0  0
    0.0000    0.0000    0.0000 C   0  0  0  0  0  0  0  0  0  0  0  0
    0.0000    0.8250    0.0000 C   0  0  0  0  0  0  0  0  0  0  0  0
    0.7145    1.2375    0.0000 C   0  0  0  0  0  0  0  0  0  0  0  0
    0.7145    2.0625    0.0000 C   0  0  0  0  0  0  0  0  0  0  0  0
    0.0000    2.4750    0.0000 O   0  0  0  0  0  0  0  0  0  0  0  0
  1  2  1  0  0  0  0
  2  3  2  0  0  0  0
  3  4  1  0  0  0  0
  4  5  2  0  0  0  0
  5  6  1  0  0  0  0
  6  7  2  0  0  0  0
  2  7  1  0  0  0  0
  7  8  1  0  0  0  0
  8  9  1  0  0  0  0
M  END
> <DRUGBANK_ID>
DB03058

> <DRUG_GROUPS>
experimental

> <GENERIC_NAME>
Isatoic Anhydride

> <CHEMICAL_FORMULA>
C7H9NO

> <MOLECULAR_WEIGHT>
123.1525

> <EXACT_MASS>
123.068413915

> <IUPAC_NAME>
(2-aminophenyl)methanol

> <IUPAC_TRADITIONAL_NAME>
isatoic anhydride

> <INCHI_IDENTIFIER>
InChI=1S/C7H9NO/c8-7-4-2-1-3-6(7)5-9/h1-4,9H,5,8H2

> <INCHI_KEY>
InChIKey=VYFOAVADNIHPTR-UHFFFAOYSA-N

> <SMILES>
NC1=CC=CC=C1CO

> <JCHEM_ACCEPTOR_COUNT>
2

> <JCHEM_DONOR_COUNT>
2

> <JCHEM_ACIDIC_PKA>
14.99

> <JCHEM_BASIC_PKA>
3.55

> <JCHEM_PHYSIOLOGICAL_CHARGE>
0

> <ALOGPS_LOGP>
-0.13

> <JCHEM_LOGP>
0.38

> <ALOGPS_LOGS>
-0.43

> <JCHEM_POLARIZABILITY>
13.21

> <JCHEM_POLAR_SURFACE_AREA>
46.25

> <JCHEM_REFRACTIVITY>
37.57

> <JCHEM_ROTATABLE_BOND_COUNT>
1

> <ALOGPS_SOLUBILITY>
4.62e+01 g/l __ 

$$$$
