
  Mrv0541 02231217072D          

 31 34  0  0  1  0            999 V2000
    4.9830   -1.5571    0.0000 C   0  0  0  0  0  0  0  0  0  0  0  0
    5.2939   -0.7929    0.0000 C   0  0  1  0  0  0  0  0  0  0  0  0
    6.1111   -0.6800    0.0000 C   0  0  0  0  0  0  0  0  0  0  0  0
    6.6175   -1.3314    0.0000 C   0  0  0  0  0  0  0  0  0  0  0  0
    7.4347   -1.2185    0.0000 C   0  0  0  0  0  0  0  0  0  0  0  0
    7.7456   -0.4543    0.0000 C   0  0  0  0  0  0  0  0  0  0  0  0
    7.2392    0.1970    0.0000 C   0  0  0  0  0  0  0  0  0  0  0  0
    8.5628   -0.3415    0.0000 C   0  0  0  0  0  0  0  0  0  0  0  0
    4.7875   -0.1416    0.0000 C   0  0  2  0  0  0  0  0  0  0  0  0
    5.0168    0.6509    0.0000 C   0  0  0  0  0  0  0  0  0  0  0  0
    4.3340    1.1139    0.0000 C   0  0  0  0  0  0  0  0  0  0  0  0
    3.6826    0.6076    0.0000 C   0  0  2  0  0  0  0  0  0  0  0  0
    3.4850    1.4085    0.0000 C   0  0  0  0  0  0  0  0  0  0  0  0
    2.8705    0.7528    0.0000 C   0  0  0  0  0  0  0  0  0  0  0  0
    2.3387    0.1221    0.0000 C   0  0  0  0  0  0  0  0  0  0  0  0
    2.6190   -0.6539    0.0000 C   0  0  0  0  0  0  0  0  0  0  0  0
    3.4311   -0.7991    0.0000 C   0  0  0  0  0  0  0  0  0  0  0  0
    3.9629   -0.1684    0.0000 C   0  0  2  0  0  0  0  0  0  0  0  0
    4.3228   -0.9107    0.0000 C   0  0  0  0  0  0  0  0  0  0  0  0
    1.5266    0.2673    0.0000 C   0  0  2  0  0  0  0  0  0  0  0  0
    1.8069   -0.5086    0.0000 C   0  0  0  0  0  0  0  0  0  0  0  0
    0.9948   -0.3634    0.0000 C   0  0  0  0  0  0  0  0  0  0  0  0
    0.1827   -0.2182    0.0000 C   0  0  0  0  0  0  0  0  0  0  0  0
   -0.0976    0.5577    0.0000 C   0  0  1  0  0  0  0  0  0  0  0  0
   -0.9098    0.7029    0.0000 O   0  0  0  0  0  0  0  0  0  0  0  0
    0.4342    1.1884    0.0000 C   0  0  0  0  0  0  0  0  0  0  0  0
   -0.2793    1.6026    0.0000 C   0  0  0  0  0  0  0  0  0  0  0  0
    0.7182    1.9630    0.0000 C   0  0  0  0  0  0  0  0  0  0  0  0
    1.2463    1.0432    0.0000 C   0  0  1  0  0  0  0  0  0  0  0  0
    1.7781    1.6739    0.0000 C   0  0  0  0  0  0  0  0  0  0  0  0
    2.5902    1.5287    0.0000 C   0  0  0  0  0  0  0  0  0  0  0  0
  2  1  1  6  0  0  0
  2  3  1  0  0  0  0
  3  4  1  0  0  0  0
  4  5  1  0  0  0  0
  5  6  2  0  0  0  0
  6  7  1  0  0  0  0
  6  8  1  0  0  0  0
  9  2  1  1  0  0  0
  9 10  1  0  0  0  0
 10 11  1  0  0  0  0
 11 12  1  0  0  0  0
 12 13  1  6  0  0  0
 12 14  1  0  0  0  0
 14 15  2  0  0  0  0
 15 16  1  0  0  0  0
 16 17  1  0  0  0  0
 17 18  1  0  0  0  0
  9 18  1  0  0  0  0
 12 18  1  0  0  0  0
 18 19  1  6  0  0  0
 15 20  1  0  0  0  0
 20 21  1  1  0  0  0
 20 22  1  0  0  0  0
 22 23  1  0  0  0  0
 23 24  1  0  0  0  0
 24 25  1  1  0  0  0
 24 26  1  0  0  0  0
 26 27  1  0  0  0  0
 26 28  1  0  0  0  0
 29 26  1  1  0  0  0
 20 29  1  0  0  0  0
 29 30  1  0  0  0  0
 30 31  1  0  0  0  0
 14 31  1  0  0  0  0
M  END
> <DRUGBANK_ID>
DB03696

> <DRUG_GROUPS>
experimental

> <GENERIC_NAME>
Lanosterol

> <CHEMICAL_FORMULA>
C30H50O

> <MOLECULAR_WEIGHT>
426.7174

> <EXACT_MASS>
426.386166222

> <IUPAC_NAME>
(2R,5R,7S,11S,14S,15R)-2,6,6,11,15-pentamethyl-14-[(2S)-6-methylhept-5-en-2-yl]tetracyclo[8.7.0.0^{2,7}.0^{11,15}]heptadec-1(10)-en-5-ol

> <IUPAC_TRADITIONAL_NAME>
lanosterol

> <INCHI_IDENTIFIER>
InChI=1S/C30H50O/c1-20(2)10-9-11-21(3)22-14-18-30(8)24-12-13-25-27(4,5)26(31)16-17-28(25,6)23(24)15-19-29(22,30)7/h10,21-22,25-26,31H,9,11-19H2,1-8H3/t21-,22-,25+,26+,28-,29+,30+/m0/s1

> <INCHI_KEY>
InChIKey=CAHGCLMLTWQZNJ-RGEKOYMOSA-N

> <SMILES>
C[C@@H](CCC=C(C)C)[C@@H]1CC[C@]2(C)C3=C(CC[C@]12C)[C@]1(C)CC[C@@H](O)C(C)(C)[C@H]1CC3

> <JCHEM_ACCEPTOR_COUNT>
1

> <JCHEM_DONOR_COUNT>
1

> <JCHEM_ACIDIC_PKA>
19.55

> <JCHEM_BASIC_PKA>
-0.81

> <JCHEM_PHYSIOLOGICAL_CHARGE>
0

> <ALOGPS_LOGP>
7.72

> <JCHEM_LOGP>
7.71

> <ALOGPS_LOGS>
-6.1

> <JCHEM_POLARIZABILITY>
55.12

> <JCHEM_POLAR_SURFACE_AREA>
20.23

> <JCHEM_REFRACTIVITY>
134.54

> <JCHEM_ROTATABLE_BOND_COUNT>
4

> <ALOGPS_SOLUBILITY>
3.76e-04 g/l __ 

$$$$
