
  Mrv0541 02231216512D          

 44 48  0  0  1  0            999 V2000
   -5.8078   -3.0058    0.0000 N   0  0  0  0  0  0  0  0  0  0  0  0
   -5.4722   -3.7595    0.0000 C   0  0  0  0  0  0  0  0  0  0  0  0
   -4.6518   -3.8457    0.0000 N   0  0  0  0  0  0  0  0  0  0  0  0
   -4.3162   -4.5994    0.0000 C   0  0  0  0  0  0  0  0  0  0  0  0
   -3.4957   -4.6856    0.0000 O   0  0  0  0  0  0  0  0  0  0  0  0
   -4.8011   -5.2668    0.0000 N   0  0  0  0  0  0  0  0  0  0  0  0
   -5.6216   -5.1806    0.0000 C   0  0  0  0  0  0  0  0  0  0  0  0
   -5.9572   -4.4269    0.0000 C   0  0  0  0  0  0  0  0  0  0  0  0
   -4.4656   -6.0205    0.0000 C   0  0  2  0  0  0  0  0  0  0  0  0
   -3.6586   -6.1920    0.0000 O   0  0  0  0  0  0  0  0  0  0  0  0
   -3.5724   -7.0125    0.0000 C   0  0  1  0  0  0  0  0  0  0  0  0
   -2.8579   -7.4250    0.0000 C   0  0  0  0  0  0  0  0  0  0  0  0
   -2.1434   -7.0125    0.0000 O   0  0  0  0  0  0  0  0  0  0  0  0
   -1.4289   -7.4250    0.0000 P   0  0  2  0  0  0  0  0  0  0  0  0
   -1.8414   -8.1395    0.0000 O   0  0  0  0  0  0  0  0  0  0  0  0
   -1.0164   -6.7105    0.0000 O   0  0  0  0  0  0  0  0  0  0  0  0
   -0.7145   -7.8375    0.0000 O   0  0  0  0  0  0  0  0  0  0  0  0
    0.0000   -7.4250    0.0000 P   0  0  1  0  0  0  0  0  0  0  0  0
    0.4125   -8.1395    0.0000 O   0  0  0  0  0  0  0  0  0  0  0  0
   -0.4125   -6.7105    0.0000 O   0  0  0  0  0  0  0  0  0  0  0  0
    0.7145   -7.0125    0.0000 O   0  0  0  0  0  0  0  0  0  0  0  0
    1.4289   -7.4250    0.0000 C   0  0  0  0  0  0  0  0  0  0  0  0
    2.1434   -7.0125    0.0000 C   0  0  1  0  0  0  0  0  0  0  0  0
    2.8579   -7.4250    0.0000 O   0  0  0  0  0  0  0  0  0  0  0  0
    3.5724   -7.0125    0.0000 C   0  0  0  0  0  0  0  0  0  0  0  0
    4.2868   -7.4250    0.0000 N   0  0  0  0  0  0  0  0  0  0  0  0
    5.0013   -7.0125    0.0000 C   0  0  0  0  0  0  0  0  0  0  0  0
    5.0013   -6.1875    0.0000 C   0  0  0  0  0  0  0  0  0  0  0  0
    4.2868   -5.7750    0.0000 N   0  0  0  0  0  0  0  0  0  0  0  0
    3.5724   -6.1875    0.0000 C   0  0  0  0  0  0  0  0  0  0  0  0
    2.8579   -5.7750    0.0000 C   0  0  0  0  0  0  0  0  0  0  0  0
    2.8579   -4.9500    0.0000 S   0  0  0  0  0  0  0  0  0  0  0  0
    2.1434   -6.1875    0.0000 C   0  0  0  0  0  0  0  0  0  0  0  0
    1.4289   -5.7750    0.0000 S   0  0  0  0  0  0  0  0  0  0  0  0
    5.7158   -5.7750    0.0000 C   0  0  0  0  0  0  0  0  0  0  0  0
    5.7158   -4.9500    0.0000 O   0  0  0  0  0  0  0  0  0  0  0  0
    6.4302   -6.1875    0.0000 N   0  0  0  0  0  0  0  0  0  0  0  0
    6.4302   -7.0125    0.0000 C   0  0  0  0  0  0  0  0  0  0  0  0
    7.1447   -7.4250    0.0000 N   0  0  0  0  0  0  0  0  0  0  0  0
    5.7158   -7.4250    0.0000 N   0  0  0  0  0  0  0  0  0  0  0  0
   -4.3260   -7.3481    0.0000 C   0  0  2  0  0  0  0  0  0  0  0  0
   -4.4976   -8.1550    0.0000 O   0  0  0  0  0  0  0  0  0  0  0  0
   -4.8781   -6.7350    0.0000 C   0  0  1  0  0  0  0  0  0  0  0  0
   -5.6985   -6.8212    0.0000 O   0  0  0  0  0  0  0  0  0  0  0  0
  1  2  1  0  0  0  0
  2  3  2  0  0  0  0
  3  4  1  0  0  0  0
  4  5  2  0  0  0  0
  4  6  1  0  0  0  0
  6  7  1  0  0  0  0
  7  8  2  0  0  0  0
  2  8  1  0  0  0  0
  9  6  1  6  0  0  0
  9 10  1  0  0  0  0
 10 11  1  0  0  0  0
 11 12  1  1  0  0  0
 12 13  1  0  0  0  0
 14 13  1  6  0  0  0
 14 15  1  1  0  0  0
 14 16  2  0  0  0  0
 14 17  1  0  0  0  0
 18 17  1  1  0  0  0
 18 19  1  6  0  0  0
 18 20  2  0  0  0  0
 18 21  1  0  0  0  0
 21 22  1  0  0  0  0
 23 22  1  6  0  0  0
 23 24  1  0  0  0  0
 24 25  1  0  0  0  0
 25 26  2  0  0  0  0
 26 27  1  0  0  0  0
 27 28  2  0  0  0  0
 28 29  1  0  0  0  0
 29 30  2  0  0  0  0
 25 30  1  0  0  0  0
 30 31  1  0  0  0  0
 31 32  1  0  0  0  0
 31 33  2  0  0  0  0
 23 33  1  0  0  0  0
 33 34  1  0  0  0  0
 28 35  1  0  0  0  0
 35 36  1  0  0  0  0
 35 37  2  0  0  0  0
 37 38  1  0  0  0  0
 38 39  1  0  0  0  0
 38 40  2  0  0  0  0
 27 40  1  0  0  0  0
 11 41  1  0  0  0  0
 41 42  1  6  0  0  0
 41 43  1  0  0  0  0
  9 43  1  0  0  0  0
 43 44  1  1  0  0  0
M  END
> <DRUGBANK_ID>
DB03300

> <DRUG_GROUPS>
experimental

> <GENERIC_NAME>
Pterin Cytosine Dinucleotide

> <CHEMICAL_FORMULA>
C19H22N8O13P2S2

> <MOLECULAR_WEIGHT>
696.501

> <EXACT_MASS>
696.022297234

> <IUPAC_NAME>
{[(2S,3R,4R,5R)-5-(4-amino-2-oxo-1,2-dihydropyrimidin-1-yl)-3,4-dihydroxyoxolan-2-yl]methoxy}[({[(8R)-2-amino-4-hydroxy-6,7-disulfanyl-8H-pyrano[3,2-g]pteridin-8-yl]methoxy}(hydroxy)phosphoryl)oxy]phosphinic acid

> <IUPAC_TRADITIONAL_NAME>
[(2S,3R,4R,5R)-5-(4-amino-2-oxopyrimidin-1-yl)-3,4-dihydroxyoxolan-2-yl]methoxy({[(8R)-2-amino-4-hydroxy-6,7-disulfanyl-8H-pyrano[3,2-g]pteridin-8-yl]methoxy(hydroxy)phosphoryl}oxy)phosphinic acid

> <INCHI_IDENTIFIER>
InChI=1S/C19H22N8O13P2S2/c20-7-1-2-27(19(31)22-7)17-11(29)10(28)5(39-17)3-36-41(32,33)40-42(34,35)37-4-6-12(43)13(44)8-16(38-6)24-14-9(23-8)15(30)26-18(21)25-14/h1-2,5-6,10-11,17,28-29,43-44H,3-4H2,(H,32,33)(H,34,35)(H2,20,22,31)(H3,21,24,25,26,30)/t5-,6+,10-,11+,17+/m0/s1

> <INCHI_KEY>
InChIKey=RBWYFPNWTRZKKZ-KIOPRYTQSA-N

> <SMILES>
NC1=NC(=O)N(C=C1)[C@@H]1O[C@@H](CO[P@](O)(=O)O[P@@](O)(=O)OC[C@H]2OC3=NC4=C(N=C3C(S)=C2S)C(O)=NC(N)=N4)[C@H](O)[C@H]1O

> <JCHEM_ACCEPTOR_COUNT>
17

> <JCHEM_DONOR_COUNT>
9

> <JCHEM_ACIDIC_PKA>
1.86

> <JCHEM_BASIC_PKA>
-0.56

> <JCHEM_PHYSIOLOGICAL_CHARGE>
-3

> <ALOGPS_LOGP>
0.41

> <JCHEM_LOGP>
-2.7

> <ALOGPS_LOGS>
-2.8

> <JCHEM_POLARIZABILITY>
59.96

> <JCHEM_POLAR_SURFACE_AREA>
317.71

> <JCHEM_REFRACTIVITY>
152.42

> <JCHEM_ROTATABLE_BOND_COUNT>
9

> <ALOGPS_SOLUBILITY>
1.18e+00 g/l __ 

$$$$
