
  Mrv0541 02231216542D          

 39 41  0  0  1  0            999 V2000
   -3.3396   -8.4917    0.0000 C   0  0  0  0  0  0  0  0  0  0  0  0
   -3.3396   -7.6667    0.0000 C   0  0  0  0  0  0  0  0  0  0  0  0
   -4.0540   -7.2542    0.0000 O   0  0  0  0  0  0  0  0  0  0  0  0
   -2.6251   -7.2542    0.0000 N   0  0  0  0  0  0  0  0  0  0  0  0
   -2.6251   -6.4292    0.0000 C   0  0  1  0  0  0  0  0  0  0  0  0
   -3.3396   -6.0167    0.0000 C   0  0  2  0  0  0  0  0  0  0  0  0
   -4.0540   -6.4292    0.0000 O   0  0  0  0  0  0  0  0  0  0  0  0
   -3.3396   -5.1917    0.0000 C   0  0  1  0  0  0  0  0  0  0  0  0
   -4.0540   -4.7792    0.0000 O   0  0  0  0  0  0  0  0  0  0  0  0
   -2.6251   -4.7792    0.0000 C   0  0  2  0  0  0  0  0  0  0  0  0
   -2.6251   -3.9542    0.0000 C   0  0  0  0  0  0  0  0  0  0  0  0
   -1.9106   -3.5417    0.0000 O   0  0  0  0  0  0  0  0  0  0  0  0
   -1.9106   -5.1917    0.0000 O   0  0  0  0  0  0  0  0  0  0  0  0
   -1.9106   -6.0167    0.0000 C   0  0  1  0  0  0  0  0  0  0  0  0
   -1.1962   -6.4292    0.0000 O   0  0  0  0  0  0  0  0  0  0  0  0
   -0.4817   -6.0167    0.0000 P   0  0  2  0  0  0  0  0  0  0  0  0
   -0.0692   -6.7312    0.0000 O   0  0  0  0  0  0  0  0  0  0  0  0
   -0.8942   -5.3022    0.0000 O   0  0  0  0  0  0  0  0  0  0  0  0
    0.2328   -5.6042    0.0000 O   0  0  0  0  0  0  0  0  0  0  0  0
    0.9473   -6.0167    0.0000 P   0  0  2  0  0  0  0  0  0  0  0  0
    0.5348   -6.7312    0.0000 O   0  0  0  0  0  0  0  0  0  0  0  0
    1.3598   -5.3022    0.0000 O   0  0  0  0  0  0  0  0  0  0  0  0
    1.6617   -6.4292    0.0000 O   0  0  0  0  0  0  0  0  0  0  0  0
    2.3762   -6.0167    0.0000 C   0  0  0  0  0  0  0  0  0  0  0  0
    3.0907   -6.4292    0.0000 C   0  0  2  0  0  0  0  0  0  0  0  0
    3.8443   -6.0937    0.0000 O   0  0  0  0  0  0  0  0  0  0  0  0
    4.3964   -6.7067    0.0000 C   0  0  2  0  0  0  0  0  0  0  0  0
    3.9839   -7.4212    0.0000 C   0  0  2  0  0  0  0  0  0  0  0  0
    4.3194   -8.1749    0.0000 O   0  0  0  0  0  0  0  0  0  0  0  0
    3.1769   -7.2497    0.0000 C   0  0  1  0  0  0  0  0  0  0  0  0
    2.5638   -7.8017    0.0000 O   0  0  0  0  0  0  0  0  0  0  0  0
    5.2169   -6.6205    0.0000 N   0  0  0  0  0  0  0  0  0  0  0  0
    5.5524   -5.8668    0.0000 C   0  0  0  0  0  0  0  0  0  0  0  0
    6.3729   -5.7806    0.0000 C   0  0  0  0  0  0  0  0  0  0  0  0
    6.8578   -6.4480    0.0000 C   0  0  0  0  0  0  0  0  0  0  0  0
    7.6783   -6.3618    0.0000 O   0  0  0  0  0  0  0  0  0  0  0  0
    6.5223   -7.2017    0.0000 N   0  0  0  0  0  0  0  0  0  0  0  0
    5.7018   -7.2880    0.0000 C   0  0  0  0  0  0  0  0  0  0  0  0
    5.3662   -8.0416    0.0000 O   0  0  0  0  0  0  0  0  0  0  0  0
  1  2  1  0  0  0  0
  2  3  2  0  0  0  0
  2  4  1  0  0  0  0
  5  4  1  1  0  0  0
  5  6  1  0  0  0  0
  6  7  1  6  0  0  0
  6  8  1  0  0  0  0
  8  9  1  1  0  0  0
  8 10  1  0  0  0  0
 10 11  1  6  0  0  0
 11 12  1  0  0  0  0
 10 13  1  0  0  0  0
 13 14  1  0  0  0  0
  5 14  1  0  0  0  0
 14 15  1  1  0  0  0
 16 15  1  6  0  0  0
 16 17  1  1  0  0  0
 16 18  2  0  0  0  0
 16 19  1  0  0  0  0
 20 19  1  6  0  0  0
 20 21  1  1  0  0  0
 20 22  2  0  0  0  0
 20 23  1  0  0  0  0
 23 24  1  0  0  0  0
 25 24  1  6  0  0  0
 25 26  1  0  0  0  0
 26 27  1  0  0  0  0
 27 28  1  0  0  0  0
 28 29  1  6  0  0  0
 28 30  1  0  0  0  0
 25 30  1  0  0  0  0
 30 31  1  1  0  0  0
 27 32  1  1  0  0  0
 32 33  1  0  0  0  0
 33 34  2  0  0  0  0
 34 35  1  0  0  0  0
 35 36  2  0  0  0  0
 35 37  1  0  0  0  0
 37 38  1  0  0  0  0
 32 38  1  0  0  0  0
 38 39  2  0  0  0  0
M  END
> <DRUGBANK_ID>
DB03397

> <DRUG_GROUPS>
experimental

> <GENERIC_NAME>
Uridine-Diphosphate-N-Acetylglucosamine

> <CHEMICAL_FORMULA>
C17H27N3O17P2

> <MOLECULAR_WEIGHT>
607.3537

> <EXACT_MASS>
607.081569477

> <IUPAC_NAME>
[({[(2S,3R,4R,5R)-5-(2,4-dioxo-1,2,3,4-tetrahydropyrimidin-1-yl)-3,4-dihydroxyoxolan-2-yl]methoxy}(hydroxy)phosphoryl)oxy]({[(2S,3S,4S,5R,6S)-3-acetamido-4,5-dihydroxy-6-(hydroxymethyl)oxan-2-yl]oxy})phosphinic acid

> <IUPAC_TRADITIONAL_NAME>
{[(2S,3R,4R,5R)-5-(2,4-dioxo-3H-pyrimidin-1-yl)-3,4-dihydroxyoxolan-2-yl]methoxy(hydroxy)phosphoryl}oxy[(2S,3S,4S,5R,6S)-3-acetamido-4,5-dihydroxy-6-(hydroxymethyl)oxan-2-yl]oxyphosphinic acid

> <INCHI_IDENTIFIER>
InChI=1S/C17H27N3O17P2/c1-6(22)18-10-13(26)11(24)7(4-21)35-16(10)36-39(31,32)37-38(29,30)33-5-8-12(25)14(27)15(34-8)20-3-2-9(23)19-17(20)28/h2-3,7-8,10-16,21,24-27H,4-5H2,1H3,(H,18,22)(H,29,30)(H,31,32)(H,19,23,28)/t7-,8-,10-,11-,12-,13-,14+,15+,16-/m0/s1

> <INCHI_KEY>
InChIKey=LFTYTUAZOPRMMI-LSIJYXAZSA-N

> <SMILES>
CC(=O)N[C@H]1[C@H](O)[C@@H](O)[C@H](CO)O[C@H]1O[P@](O)(=O)O[P@](O)(=O)OC[C@@H]1O[C@H]([C@H](O)[C@H]1O)N1C=CC(=O)NC1=O

> <JCHEM_ACCEPTOR_COUNT>
14

> <JCHEM_DONOR_COUNT>
9

> <JCHEM_ACIDIC_PKA>
1.74

> <JCHEM_BASIC_PKA>
-3.5

> <JCHEM_PHYSIOLOGICAL_CHARGE>
-2

> <ALOGPS_LOGP>
-1.4

> <JCHEM_LOGP>
-5.3

> <ALOGPS_LOGS>
-1.7

> <JCHEM_POLARIZABILITY>
49.62

> <JCHEM_POLAR_SURFACE_AREA>
300.41

> <JCHEM_REFRACTIVITY>
117.56

> <JCHEM_ROTATABLE_BOND_COUNT>
10

> <ALOGPS_SOLUBILITY>
1.14e+01 g/l __ 

$$$$
