
  Mrv0541 02231217162D          

  7  6  0  0  0  0            999 V2000
   -0.1914    0.7146    0.0000 C   0  0  0  0  0  0  0  0  0  0  0  0
    0.5230    1.1271    0.0000 C   0  0  0  0  0  0  0  0  0  0  0  0
    1.2376    0.7146    0.0000 N   0  0  0  0  0  0  0  0  0  0  0  0
    1.9521    1.1271    0.0000 C   0  0  0  0  0  0  0  0  0  0  0  0
    1.9521    1.9521    0.0000 O   0  0  0  0  0  0  0  0  0  0  0  0
    2.6666    0.7146    0.0000 O   0  0  0  0  0  0  0  0  0  0  0  0
    3.3812    1.1271    0.0000 C   0  0  0  0  0  0  0  0  0  0  0  0
  1  2  1  0  0  0  0
  2  3  1  0  0  0  0
  3  4  1  0  0  0  0
  4  5  2  0  0  0  0
  4  6  1  0  0  0  0
  6  7  1  0  0  0  0
M  END
> <DRUGBANK_ID>
DB03919

> <DRUG_GROUPS>
experimental

> <GENERIC_NAME>
Ethyl-Carbamic Acid Methyl Ester

> <CHEMICAL_FORMULA>
C4H9NO2

> <MOLECULAR_WEIGHT>
103.1198

> <EXACT_MASS>
103.063328537

> <IUPAC_NAME>
methyl N-ethylcarbamate

> <IUPAC_TRADITIONAL_NAME>
N-ethyl methylcarbamate

> <INCHI_IDENTIFIER>
InChI=1S/C4H9NO2/c1-3-5-4(6)7-2/h3H2,1-2H3,(H,5,6)

> <INCHI_KEY>
InChIKey=AEARPZNULDFPNQ-UHFFFAOYSA-N

> <SMILES>
CCNC(=O)OC

> <JCHEM_ACCEPTOR_COUNT>
1

> <JCHEM_DONOR_COUNT>
1

> <JCHEM_ACIDIC_PKA>
15.12

> <JCHEM_PHYSIOLOGICAL_CHARGE>
0

> <ALOGPS_LOGP>
-0.1

> <JCHEM_LOGP>
0.17

> <ALOGPS_LOGS>
0.43

> <JCHEM_POLARIZABILITY>
10.72

> <JCHEM_POLAR_SURFACE_AREA>
38.33

> <JCHEM_REFRACTIVITY>
25.73

> <JCHEM_ROTATABLE_BOND_COUNT>
2

> <ALOGPS_SOLUBILITY>
2.79e+02 g/l __ 

$$$$
