
  Mrv0541 02231216562D          

100 99  0  0  1  0            999 V2000
   30.2230   18.2743    0.0000 C   0  0  0  0  0  0  0  0  0  0  0  0
   30.9375   17.8618    0.0000 C   0  0  0  0  0  0  0  0  0  0  0  0
   31.6520   18.2743    0.0000 C   0  0  0  0  0  0  0  0  0  0  0  0
   32.3664   17.8618    0.0000 C   0  0  0  0  0  0  0  0  0  0  0  0
   33.0809   18.2743    0.0000 C   0  0  0  0  0  0  0  0  0  0  0  0
   33.7954   17.8618    0.0000 C   0  0  0  0  0  0  0  0  0  0  0  0
   34.5099   18.2743    0.0000 C   0  0  0  0  0  0  0  0  0  0  0  0
   35.2243   17.8618    0.0000 C   0  0  0  0  0  0  0  0  0  0  0  0
   35.9388   18.2743    0.0000 C   0  0  0  0  0  0  0  0  0  0  0  0
   36.6533   17.8618    0.0000 C   0  0  0  0  0  0  0  0  0  0  0  0
   37.3677   18.2743    0.0000 C   0  0  0  0  0  0  0  0  0  0  0  0
   38.0822   17.8618    0.0000 C   0  0  0  0  0  0  0  0  0  0  0  0
   38.7967   18.2743    0.0000 C   0  0  0  0  0  0  0  0  0  0  0  0
   39.5112   17.8618    0.0000 C   0  0  0  0  0  0  0  0  0  0  0  0
   40.2256   18.2743    0.0000 C   0  0  0  0  0  0  0  0  0  0  0  0
   40.9401   17.8618    0.0000 C   0  0  0  0  0  0  0  0  0  0  0  0
   41.6546   18.2743    0.0000 C   0  0  0  0  0  0  0  0  0  0  0  0
   42.3690   17.8618    0.0000 C   0  0  0  0  0  0  0  0  0  0  0  0
   42.3690   17.0368    0.0000 O   0  0  0  0  0  0  0  0  0  0  0  0
   43.0835   18.2743    0.0000 O   0  0  0  0  0  0  0  0  0  0  0  0
   43.7980   17.8618    0.0000 C   0  0  0  0  0  0  0  0  0  0  0  0
   44.5124   18.2743    0.0000 C   0  0  2  0  0  0  0  0  0  0  0  0
   45.2269   17.8618    0.0000 C   0  0  0  0  0  0  0  0  0  0  0  0
   45.9414   18.2743    0.0000 O   0  0  0  0  0  0  0  0  0  0  0  0
   46.6559   17.8618    0.0000 P   0  0  1  0  0  0  0  0  0  0  0  0
   46.2434   17.1473    0.0000 O   0  0  0  0  0  0  0  0  0  0  0  0
   47.0684   18.5762    0.0000 O   0  0  0  0  0  0  0  0  0  0  0  0
   47.3703   17.4493    0.0000 O   0  0  0  0  0  0  0  0  0  0  0  0
   48.0848   17.8618    0.0000 C   0  0  0  0  0  0  0  0  0  0  0  0
   48.7993   17.4493    0.0000 C   0  0  0  0  0  0  0  0  0  0  0  0
   48.7993   16.6243    0.0000 O   0  0  0  0  0  0  0  0  0  0  0  0
   49.5137   17.8618    0.0000 C   0  0  0  0  0  0  0  0  0  0  0  0
   50.2282   17.4493    0.0000 O   0  0  0  0  0  0  0  0  0  0  0  0
   50.9427   17.8618    0.0000 P   0  0  2  0  0  0  0  0  0  0  0  0
   51.3552   17.1473    0.0000 O   0  0  0  0  0  0  0  0  0  0  0  0
   50.5302   18.5762    0.0000 O   0  0  0  0  0  0  0  0  0  0  0  0
   51.6572   18.2743    0.0000 O   0  0  0  0  0  0  0  0  0  0  0  0
   52.3716   17.8618    0.0000 C   0  0  0  0  0  0  0  0  0  0  0  0
   53.0861   18.2743    0.0000 C   0  0  1  0  0  0  0  0  0  0  0  0
   53.8006   17.8618    0.0000 C   0  0  0  0  0  0  0  0  0  0  0  0
   54.5150   18.2743    0.0000 O   0  0  0  0  0  0  0  0  0  0  0  0
   55.2295   17.8618    0.0000 C   0  0  0  0  0  0  0  0  0  0  0  0
   55.2295   17.0368    0.0000 O   0  0  0  0  0  0  0  0  0  0  0  0
   55.9440   18.2743    0.0000 C   0  0  0  0  0  0  0  0  0  0  0  0
   56.6585   17.8618    0.0000 C   0  0  0  0  0  0  0  0  0  0  0  0
   57.3729   18.2743    0.0000 C   0  0  0  0  0  0  0  0  0  0  0  0
   58.0874   17.8618    0.0000 C   0  0  0  0  0  0  0  0  0  0  0  0
   58.8019   18.2743    0.0000 C   0  0  0  0  0  0  0  0  0  0  0  0
   59.5163   17.8618    0.0000 C   0  0  0  0  0  0  0  0  0  0  0  0
   60.2308   18.2743    0.0000 C   0  0  0  0  0  0  0  0  0  0  0  0
   60.9453   17.8618    0.0000 C   0  0  0  0  0  0  0  0  0  0  0  0
   61.6598   18.2743    0.0000 C   0  0  0  0  0  0  0  0  0  0  0  0
   62.3742   17.8618    0.0000 C   0  0  0  0  0  0  0  0  0  0  0  0
   63.0887   18.2743    0.0000 C   0  0  0  0  0  0  0  0  0  0  0  0
   63.8032   17.8618    0.0000 C   0  0  0  0  0  0  0  0  0  0  0  0
   64.5176   18.2743    0.0000 C   0  0  0  0  0  0  0  0  0  0  0  0
   65.2321   17.8618    0.0000 C   0  0  0  0  0  0  0  0  0  0  0  0
   65.9466   18.2743    0.0000 C   0  0  0  0  0  0  0  0  0  0  0  0
   66.6610   17.8618    0.0000 C   0  0  0  0  0  0  0  0  0  0  0  0
   67.3755   18.2743    0.0000 C   0  0  0  0  0  0  0  0  0  0  0  0
   53.0861   19.0993    0.0000 O   0  0  0  0  0  0  0  0  0  0  0  0
   52.3716   19.5118    0.0000 C   0  0  0  0  0  0  0  0  0  0  0  0
   51.6572   19.0993    0.0000 O   0  0  0  0  0  0  0  0  0  0  0  0
   52.3716   20.3368    0.0000 C   0  0  0  0  0  0  0  0  0  0  0  0
   51.6572   20.7493    0.0000 C   0  0  0  0  0  0  0  0  0  0  0  0
   51.6572   21.5743    0.0000 C   0  0  0  0  0  0  0  0  0  0  0  0
   50.9427   21.9868    0.0000 C   0  0  0  0  0  0  0  0  0  0  0  0
   50.9427   22.8118    0.0000 C   0  0  0  0  0  0  0  0  0  0  0  0
   50.2282   23.2243    0.0000 C   0  0  0  0  0  0  0  0  0  0  0  0
   50.2282   24.0493    0.0000 C   0  0  0  0  0  0  0  0  0  0  0  0
   49.5137   24.4618    0.0000 C   0  0  0  0  0  0  0  0  0  0  0  0
   49.5137   25.2868    0.0000 C   0  0  0  0  0  0  0  0  0  0  0  0
   48.7993   25.6993    0.0000 C   0  0  0  0  0  0  0  0  0  0  0  0
   48.7993   26.5243    0.0000 C   0  0  0  0  0  0  0  0  0  0  0  0
   48.0848   26.9368    0.0000 C   0  0  0  0  0  0  0  0  0  0  0  0
   48.0848   27.7618    0.0000 C   0  0  0  0  0  0  0  0  0  0  0  0
   47.3703   28.1743    0.0000 C   0  0  0  0  0  0  0  0  0  0  0  0
   47.3703   28.9993    0.0000 C   0  0  0  0  0  0  0  0  0  0  0  0
   46.6559   29.4118    0.0000 C   0  0  0  0  0  0  0  0  0  0  0  0
   46.6559   30.2368    0.0000 C   0  0  0  0  0  0  0  0  0  0  0  0
   44.5124   19.0993    0.0000 O   0  0  0  0  0  0  0  0  0  0  0  0
   43.7980   19.5118    0.0000 C   0  0  0  0  0  0  0  0  0  0  0  0
   43.0835   19.0993    0.0000 O   0  0  0  0  0  0  0  0  0  0  0  0
   43.7980   20.3368    0.0000 C   0  0  0  0  0  0  0  0  0  0  0  0
   43.0835   20.7493    0.0000 C   0  0  0  0  0  0  0  0  0  0  0  0
   43.0835   21.5743    0.0000 C   0  0  0  0  0  0  0  0  0  0  0  0
   42.3690   21.9868    0.0000 C   0  0  0  0  0  0  0  0  0  0  0  0
   42.3690   22.8118    0.0000 C   0  0  0  0  0  0  0  0  0  0  0  0
   41.6546   23.2243    0.0000 C   0  0  0  0  0  0  0  0  0  0  0  0
   41.6546   24.0493    0.0000 C   0  0  0  0  0  0  0  0  0  0  0  0
   40.9401   24.4618    0.0000 C   0  0  0  0  0  0  0  0  0  0  0  0
   40.9401   25.2868    0.0000 C   0  0  0  0  0  0  0  0  0  0  0  0
   40.2256   25.6993    0.0000 C   0  0  0  0  0  0  0  0  0  0  0  0
   40.2256   26.5243    0.0000 C   0  0  0  0  0  0  0  0  0  0  0  0
   39.5112   26.9368    0.0000 C   0  0  0  0  0  0  0  0  0  0  0  0
   39.5112   27.7618    0.0000 C   0  0  0  0  0  0  0  0  0  0  0  0
   38.7967   28.1743    0.0000 C   0  0  0  0  0  0  0  0  0  0  0  0
   38.7967   28.9993    0.0000 C   0  0  0  0  0  0  0  0  0  0  0  0
   38.0822   29.4118    0.0000 C   0  0  0  0  0  0  0  0  0  0  0  0
   38.0822   30.2368    0.0000 C   0  0  0  0  0  0  0  0  0  0  0  0
  1  2  1  0  0  0  0
  2  3  1  0  0  0  0
  3  4  1  0  0  0  0
  4  5  1  0  0  0  0
  5  6  1  0  0  0  0
  6  7  1  0  0  0  0
  7  8  1  0  0  0  0
  8  9  1  0  0  0  0
  9 10  1  0  0  0  0
 10 11  1  0  0  0  0
 11 12  1  0  0  0  0
 12 13  1  0  0  0  0
 13 14  1  0  0  0  0
 14 15  1  0  0  0  0
 15 16  1  0  0  0  0
 16 17  1  0  0  0  0
 17 18  1  0  0  0  0
 18 19  2  0  0  0  0
 18 20  1  0  0  0  0
 20 21  1  0  0  0  0
 21 22  1  0  0  0  0
 22 23  1  0  0  0  0
 23 24  1  0  0  0  0
 25 24  1  1  0  0  0
 25 26  1  6  0  0  0
 25 27  2  0  0  0  0
 25 28  1  0  0  0  0
 28 29  1  0  0  0  0
 29 30  1  0  0  0  0
 30 31  1  0  0  0  0
 30 32  1  0  0  0  0
 32 33  1  0  0  0  0
 34 33  1  6  0  0  0
 34 35  1  1  0  0  0
 34 36  2  0  0  0  0
 34 37  1  0  0  0  0
 37 38  1  0  0  0  0
 38 39  1  0  0  0  0
 39 40  1  0  0  0  0
 40 41  1  0  0  0  0
 41 42  1  0  0  0  0
 42 43  2  0  0  0  0
 42 44  1  0  0  0  0
 44 45  1  0  0  0  0
 45 46  1  0  0  0  0
 46 47  1  0  0  0  0
 47 48  1  0  0  0  0
 48 49  1  0  0  0  0
 49 50  1  0  0  0  0
 50 51  1  0  0  0  0
 51 52  1  0  0  0  0
 52 53  1  0  0  0  0
 53 54  1  0  0  0  0
 54 55  1  0  0  0  0
 55 56  1  0  0  0  0
 56 57  1  0  0  0  0
 57 58  1  0  0  0  0
 58 59  1  0  0  0  0
 59 60  1  0  0  0  0
 39 61  1  6  0  0  0
 61 62  1  0  0  0  0
 62 63  2  0  0  0  0
 62 64  1  0  0  0  0
 64 65  1  0  0  0  0
 65 66  1  0  0  0  0
 66 67  1  0  0  0  0
 67 68  1  0  0  0  0
 68 69  1  0  0  0  0
 69 70  1  0  0  0  0
 70 71  1  0  0  0  0
 71 72  1  0  0  0  0
 72 73  1  0  0  0  0
 73 74  1  0  0  0  0
 74 75  1  0  0  0  0
 75 76  1  0  0  0  0
 76 77  1  0  0  0  0
 77 78  1  0  0  0  0
 78 79  1  0  0  0  0
 79 80  1  0  0  0  0
 22 81  1  1  0  0  0
 81 82  1  0  0  0  0
 82 83  2  0  0  0  0
 82 84  1  0  0  0  0
 84 85  1  0  0  0  0
 85 86  1  0  0  0  0
 86 87  1  0  0  0  0
 87 88  1  0  0  0  0
 88 89  1  0  0  0  0
 89 90  1  0  0  0  0
 90 91  1  0  0  0  0
 91 92  1  0  0  0  0
 92 93  1  0  0  0  0
 93 94  1  0  0  0  0
 94 95  1  0  0  0  0
 95 96  1  0  0  0  0
 96 97  1  0  0  0  0
 97 98  1  0  0  0  0
 98 99  1  0  0  0  0
 99100  1  0  0  0  0
M  END
> <DRUGBANK_ID>
DB03429

> <DRUG_GROUPS>
experimental

> <GENERIC_NAME>
Cardiolipin

> <SYNONYMS>


> <CHEMICAL_FORMULA>
C81H158O17P2

> <MOLECULAR_WEIGHT>
1466.0585

> <EXACT_MASS>
1465.097426654

> <IUPAC_NAME>
[(2R)-2,3-bis(octadecanoyloxy)propoxy][3-({[(2R)-2,3-bis(octadecanoyloxy)propoxy](hydroxy)phosphoryl}oxy)-2-hydroxypropoxy]phosphinic acid

> <IUPAC_TRADITIONAL_NAME>
(2R)-2,3-bis(octadecanoyloxy)propoxy(3-{[(2R)-2,3-bis(octadecanoyloxy)propoxy(hydroxy)phosphoryl]oxy}-2-hydroxypropoxy)phosphinic acid

> <INCHI_IDENTIFIER>
InChI=1S/C81H158O17P2/c1-5-9-13-17-21-25-29-33-37-41-45-49-53-57-61-65-78(83)91-71-76(97-80(85)67-63-59-55-51-47-43-39-35-31-27-23-19-15-11-7-3)73-95-99(87,88)93-69-75(82)70-94-100(89,90)96-74-77(98-81(86)68-64-60-56-52-48-44-40-36-32-28-24-20-16-12-8-4)72-92-79(84)66-62-58-54-50-46-42-38-34-30-26-22-18-14-10-6-2/h75-77,82H,5-74H2,1-4H3,(H,87,88)(H,89,90)/t76-,77-/m1/s1

> <INCHI_KEY>
InChIKey=XVTUQDWPJJBEHJ-KZCWQMDCSA-N

> <SMILES>
CCCCCCCCCCCCCCCCCC(=O)OC[C@H](CO[P@@](O)(=O)OCC(O)CO[P@](O)(=O)OC[C@@H](COC(=O)CCCCCCCCCCCCCCCCC)OC(=O)CCCCCCCCCCCCCCCCC)OC(=O)CCCCCCCCCCCCCCCCC

> <JCHEM_ACCEPTOR_COUNT>
9

> <JCHEM_DONOR_COUNT>
3

> <JCHEM_ACIDIC_PKA>
1.59

> <JCHEM_BASIC_PKA>
-3.4

> <JCHEM_PHYSIOLOGICAL_CHARGE>
-2

> <ALOGPS_LOGP>
8.97

> <JCHEM_LOGP>
27.27

> <ALOGPS_LOGS>
-7.3

> <JCHEM_POLARIZABILITY>
184.51

> <JCHEM_POLAR_SURFACE_AREA>
236.95

> <JCHEM_REFRACTIVITY>
406.91

> <JCHEM_ROTATABLE_BOND_COUNT>
86

> <ALOGPS_SOLUBILITY>
6.62e-05 g/l __ 

$$$$
