ESP
  Mrv0541 02231217142D          

 12 13  0  0  0  0            999 V2000
   -1.5451   -0.3678    0.0000 C   0  0  0  0  0  0  0  0  0  0  0  0
   -0.7201   -0.3678    0.0000 C   0  0  0  0  0  0  0  0  0  0  0  0
   -1.9576    0.3467    0.0000 N   0  0  0  0  0  0  0  0  0  0  0  0
   -1.9576   -1.0823    0.0000 N   0  3  0  0  0  0  0  0  0  0  0  0
   -0.2352   -1.0352    0.0000 S   0  0  0  0  0  0  0  0  0  0  0  0
    0.5494   -0.7803    0.0000 C   0  0  0  0  0  0  0  0  0  0  0  0
    0.5494    0.0447    0.0000 C   0  0  0  0  0  0  0  0  0  0  0  0
   -0.2352    0.2996    0.0000 C   0  0  0  0  0  0  0  0  0  0  0  0
    1.2639   -1.1928    0.0000 N   0  0  0  0  0  0  0  0  0  0  0  0
    1.9784   -0.7803    0.0000 C   0  0  0  0  0  0  0  0  0  0  0  0
    1.9784    0.0447    0.0000 C   0  0  0  0  0  0  0  0  0  0  0  0
    1.2639    0.4572    0.0000 C   0  0  0  0  0  0  0  0  0  0  0  0
  1  2  1  0  0  0  0
  1  3  1  0  0  0  0
  1  4  2  0  0  0  0
  2  5  1  0  0  0  0
  2  8  2  0  0  0  0
  5  6  1  0  0  0  0
  6  7  2  0  0  0  0
  6  9  1  0  0  0  0
  7  8  1  0  0  0  0
  7 12  1  0  0  0  0
  9 10  2  0  0  0  0
 10 11  1  0  0  0  0
 11 12  2  0  0  0  0
M  END
> <DRUGBANK_ID>
DB03876

> <DRUG_GROUPS>
experimental

> <GENERIC_NAME>
Thieno[2,3-B]Pyridine-2-Carboxamidine

> <CHEMICAL_FORMULA>
C8H8N3S

> <MOLECULAR_WEIGHT>
178.234

> <EXACT_MASS>
178.043892961

> <IUPAC_NAME>
[amino(thieno[2,3-b]pyridin-2-yl)methylidene]azanium

> <IUPAC_TRADITIONAL_NAME>
[amino(thieno[2,3-b]pyridin-2-yl)methylidene]azanium

> <INCHI_IDENTIFIER>
InChI=1S/C8H7N3S/c9-7(10)6-4-5-2-1-3-11-8(5)12-6/h1-4H,(H3,9,10)/p+1

> <INCHI_KEY>
InChIKey=GZEJMYFXZMUAEC-UHFFFAOYSA-O

> <SMILES>
NC(=[NH2+])C1=CC2=C(S1)N=CC=C2

> <JCHEM_ACCEPTOR_COUNT>
2

> <JCHEM_DONOR_COUNT>
2

> <JCHEM_BASIC_PKA>
8.48

> <JCHEM_PHYSIOLOGICAL_CHARGE>
1

> <ALOGPS_LOGP>
-0.69

> <JCHEM_LOGP>
1.05

> <ALOGPS_LOGS>
-2.8

> <JCHEM_POLARIZABILITY>
18.24

> <JCHEM_POLAR_SURFACE_AREA>
64.5

> <JCHEM_REFRACTIVITY>
59.45

> <JCHEM_ROTATABLE_BOND_COUNT>
1

> <ALOGPS_SOLUBILITY>
3.28e-01 g/l __ 

$$$$
