
  Mrv0541 02231216552D          

 30 30  0  0  1  0            999 V2000
   -2.8579    3.3000    0.0000 C   0  0  0  0  0  0  0  0  0  0  0  0
   -2.1434    2.8875    0.0000 C   0  0  0  0  0  0  0  0  0  0  0  0
   -2.5559    2.1730    0.0000 C   0  0  0  0  0  0  0  0  0  0  0  0
   -1.7309    3.6020    0.0000 C   0  0  0  0  0  0  0  0  0  0  0  0
   -1.4289    2.4750    0.0000 N   0  0  0  0  0  0  0  0  0  0  0  0
   -0.7145    2.8875    0.0000 C   0  0  0  0  0  0  0  0  0  0  0  0
   -0.7145    3.7125    0.0000 O   0  0  0  0  0  0  0  0  0  0  0  0
    0.0000    2.4750    0.0000 N   0  0  0  0  0  0  0  0  0  0  0  0
    0.7145    2.8875    0.0000 C   0  0  0  0  0  0  0  0  0  0  0  0
    1.4289    2.4750    0.0000 C   0  0  0  0  0  0  0  0  0  0  0  0
    1.4289    1.6500    0.0000 N   0  0  0  0  0  0  0  0  0  0  0  0
    0.7145    1.2375    0.0000 C   0  0  0  0  0  0  0  0  0  0  0  0
    0.0000    1.6500    0.0000 C   0  0  0  0  0  0  0  0  0  0  0  0
    2.1434    1.2375    0.0000 C   0  0  0  0  0  0  0  0  0  0  0  0
    2.1434    0.4125    0.0000 O   0  0  0  0  0  0  0  0  0  0  0  0
    2.8579    1.6500    0.0000 N   0  0  0  0  0  0  0  0  0  0  0  0
    3.5724    1.2375    0.0000 C   0  0  2  0  0  0  0  0  0  0  0  0
    4.2868    1.6500    0.0000 C   0  0  1  0  0  0  0  0  0  0  0  0
    5.0013    1.2375    0.0000 C   0  0  0  0  0  0  0  0  0  0  0  0
    5.7158    1.6500    0.0000 C   0  0  0  0  0  0  0  0  0  0  0  0
    6.4302    1.2375    0.0000 C   0  0  0  0  0  0  0  0  0  0  0  0
    7.1447    1.6500    0.0000 N   0  0  0  0  0  0  0  0  0  0  0  0
    7.8592    1.2375    0.0000 C   0  0  0  0  0  0  0  0  0  0  0  0
    8.5737    1.6500    0.0000 N   0  0  0  0  0  0  0  0  0  0  0  0
    7.8592    0.4125    0.0000 N   0  0  0  0  0  0  0  0  0  0  0  0
    4.2868    2.4750    0.0000 C   0  0  0  0  0  0  0  0  0  0  0  0
    5.0013    2.8875    0.0000 O   0  0  0  0  0  0  0  0  0  0  0  0
    3.5724    0.4125    0.0000 C   0  0  0  0  0  0  0  0  0  0  0  0
    4.2868    0.0000    0.0000 O   0  0  0  0  0  0  0  0  0  0  0  0
    2.8579    0.0000    0.0000 O   0  0  0  0  0  0  0  0  0  0  0  0
  1  2  1  0  0  0  0
  2  3  1  0  0  0  0
  2  4  1  0  0  0  0
  2  5  1  0  0  0  0
  5  6  1  0  0  0  0
  6  7  2  0  0  0  0
  6  8  1  0  0  0  0
  8  9  1  0  0  0  0
  9 10  1  0  0  0  0
 10 11  1  0  0  0  0
 11 12  1  0  0  0  0
 12 13  1  0  0  0  0
  8 13  1  0  0  0  0
 11 14  1  0  0  0  0
 14 15  2  0  0  0  0
 14 16  1  0  0  0  0
 17 16  1  6  0  0  0
 17 18  1  0  0  0  0
 18 19  1  0  0  0  0
 19 20  1  0  0  0  0
 20 21  1  0  0  0  0
 21 22  1  0  0  0  0
 22 23  1  0  0  0  0
 23 24  1  0  0  0  0
 23 25  2  0  0  0  0
 18 26  1  6  0  0  0
 26 27  2  0  0  0  0
 17 28  1  0  0  0  0
 28 29  1  0  0  0  0
 28 30  2  0  0  0  0
M  END
> <DRUGBANK_ID>
DB03417

> <DRUG_GROUPS>
experimental

> <GENERIC_NAME>
1-(4-Tert-Butylcarbamoyl-Piperazine-1-Carbonyl)-3-(3-Guanidino-Propyl)-4-Oxo-Azetidine-2-Carboxylic Acid

> <CHEMICAL_FORMULA>
C18H33N7O5

> <MOLECULAR_WEIGHT>
427.4985

> <EXACT_MASS>
427.254317201

> <IUPAC_NAME>
(2R,3R)-2-({[4-(tert-butylcarbamoyl)piperazin-1-yl]carbonyl}amino)-6-carbamimidamido-3-formylhexanoic acid

> <IUPAC_TRADITIONAL_NAME>
(2R,3R)-2-{[4-(tert-butylcarbamoyl)piperazin-1-yl]carbonylamino}-6-carbamimidamido-3-formylhexanoic acid

> <INCHI_IDENTIFIER>
InChI=1S/C18H33N7O5/c1-18(2,3)23-17(30)25-9-7-24(8-10-25)16(29)22-13(14(27)28)12(11-26)5-4-6-21-15(19)20/h11-13H,4-10H2,1-3H3,(H,22,29)(H,23,30)(H,27,28)(H4,19,20,21)/t12-,13+/m0/s1

> <INCHI_KEY>
InChIKey=BVNQCAHTTOIOEK-QWHCGFSZSA-N

> <SMILES>
CC(C)(C)NC(=O)N1CCN(CC1)C(=O)N[C@H]([C@@H](CCCNC(N)=N)C=O)C(O)=O

> <JCHEM_ACCEPTOR_COUNT>
8

> <JCHEM_DONOR_COUNT>
6

> <JCHEM_ACIDIC_PKA>
3.43

> <JCHEM_BASIC_PKA>
12.04

> <JCHEM_PHYSIOLOGICAL_CHARGE>
0

> <ALOGPS_LOGP>
-0.83

> <JCHEM_LOGP>
-3.5

> <ALOGPS_LOGS>
-3.2

> <JCHEM_POLARIZABILITY>
45.39

> <JCHEM_POLAR_SURFACE_AREA>
180.95

> <JCHEM_REFRACTIVITY>
119.3

> <JCHEM_ROTATABLE_BOND_COUNT>
9

> <ALOGPS_SOLUBILITY>
2.78e-01 g/l __ 

$$$$
