
  Mrv0541 02231216412D          

 15 15  0  0  1  0            999 V2000
    2.1913    1.6913    0.0000 C   0  0  0  0  0  0  0  0  0  0  0  0
    2.0198    0.8843    0.0000 C   0  0  1  0  0  0  0  0  0  0  0  0
    2.6329    0.3323    0.0000 N   0  0  0  0  0  0  0  0  0  0  0  0
    1.2352    0.6294    0.0000 C   0  0  1  0  0  0  0  0  0  0  0  0
    0.9803   -0.1553    0.0000 N   0  0  0  0  0  0  0  0  0  0  0  0
    0.1553   -0.1553    0.0000 C   0  0  1  0  0  0  0  0  0  0  0  0
   -0.3297   -0.8227    0.0000 C   0  0  0  0  0  0  0  0  0  0  0  0
   -1.1501   -0.7365    0.0000 N   0  0  0  0  0  0  0  0  0  0  0  0
   -0.0997    0.6294    0.0000 C   0  0  0  0  0  0  0  0  0  0  0  0
   -0.8843    0.8843    0.0000 O   0  0  0  0  0  0  0  0  0  0  0  0
    0.5678    1.1143    0.0000 N   0  0  0  0  0  0  0  0  0  0  0  0
    0.5678    1.9393    0.0000 C   0  0  0  0  0  0  0  0  0  0  0  0
   -0.1467    2.3518    0.0000 C   0  0  0  0  0  0  0  0  0  0  0  0
   -0.8612    1.9393    0.0000 O   0  0  0  0  0  0  0  0  0  0  0  0
   -0.1467    3.1768    0.0000 O   0  0  0  0  0  0  0  0  0  0  0  0
  1  2  1  0  0  0  0
  2  3  1  1  0  0  0
  4  2  1  1  0  0  0
  4  5  1  0  0  0  0
  5  6  1  0  0  0  0
  6  7  1  1  0  0  0
  7  8  1  0  0  0  0
  6  9  1  0  0  0  0
  9 10  2  0  0  0  0
  9 11  1  0  0  0  0
  4 11  1  0  0  0  0
 11 12  1  0  0  0  0
 12 13  1  0  0  0  0
 13 14  1  0  0  0  0
 13 15  2  0  0  0  0
M  END
> <DRUGBANK_ID>
DB03094

> <DRUG_GROUPS>
experimental

> <GENERIC_NAME>
3,5-Dihydro-5-Methylidene-4h-Imidazol-4-On

> <CHEMICAL_FORMULA>
C8H16N4O3

> <MOLECULAR_WEIGHT>
216.2376

> <EXACT_MASS>
216.122240398

> <IUPAC_NAME>
2-[(2S,4S)-2-[(1R)-1-aminoethyl]-4-(aminomethyl)-5-oxoimidazolidin-1-yl]acetic acid

> <IUPAC_TRADITIONAL_NAME>
[(2S,4S)-2-[(1R)-1-aminoethyl]-4-(aminomethyl)-5-oxoimidazolidin-1-yl]acetic acid

> <INCHI_IDENTIFIER>
InChI=1S/C8H16N4O3/c1-4(10)7-11-5(2-9)8(15)12(7)3-6(13)14/h4-5,7,11H,2-3,9-10H2,1H3,(H,13,14)/t4-,5+,7+/m1/s1

> <INCHI_KEY>
InChIKey=MOTCYKZNVUEYFO-ZDLURKLDSA-N

> <SMILES>
C[C@@H](N)[C@H]1N[C@@H](CN)C(=O)N1CC(O)=O

> <JCHEM_ACCEPTOR_COUNT>
6

> <JCHEM_DONOR_COUNT>
4

> <JCHEM_ACIDIC_PKA>
3.68

> <JCHEM_BASIC_PKA>
8.76

> <JCHEM_PHYSIOLOGICAL_CHARGE>
1

> <ALOGPS_LOGP>
-3.3

> <JCHEM_LOGP>
-5.1

> <ALOGPS_LOGS>
-0.56

> <JCHEM_POLARIZABILITY>
21.45

> <JCHEM_POLAR_SURFACE_AREA>
121.68

> <JCHEM_REFRACTIVITY>
51.31

> <JCHEM_ROTATABLE_BOND_COUNT>
4

> <ALOGPS_SOLUBILITY>
5.95e+01 g/l __ 

$$$$
