
  Mrv0541 02231217142D          

 19 20  0  0  1  0            999 V2000
    2.7512   -0.0616    0.0000 O   0  0  0  0  0  0  0  0  0  0  0  0
    2.0367   -0.4741    0.0000 C   0  0  0  0  0  0  0  0  0  0  0  0
    2.0367   -1.2991    0.0000 C   0  0  2  0  0  0  0  0  0  0  0  0
    1.3693   -1.7840    0.0000 O   0  0  0  0  0  0  0  0  0  0  0  0
    1.6242   -2.5687    0.0000 C   0  0  1  0  0  0  0  0  0  0  0  0
    1.1393   -3.2361    0.0000 O   0  0  0  0  0  0  0  0  0  0  0  0
    0.3188   -3.1499    0.0000 C   0  0  2  0  0  0  0  0  0  0  0  0
   -0.1661   -3.8173    0.0000 C   0  0  1  0  0  0  0  0  0  0  0  0
    0.1694   -4.5710    0.0000 O   0  0  0  0  0  0  0  0  0  0  0  0
   -0.9866   -3.7311    0.0000 C   0  0  0  0  0  0  0  0  0  0  0  0
   -1.3222   -2.9774    0.0000 O   0  0  0  0  0  0  0  0  0  0  0  0
   -0.8372   -2.3099    0.0000 C   0  0  2  0  0  0  0  0  0  0  0  0
   -1.1728   -1.5563    0.0000 O   0  0  0  0  0  0  0  0  0  0  0  0
   -0.0168   -2.3962    0.0000 C   0  0  1  0  0  0  0  0  0  0  0  0
    0.4682   -1.7287    0.0000 O   0  0  0  0  0  0  0  0  0  0  0  0
    2.4492   -2.5687    0.0000 C   0  0  2  0  0  0  0  0  0  0  0  0
    2.9341   -3.2361    0.0000 O   0  0  0  0  0  0  0  0  0  0  0  0
    2.7041   -1.7840    0.0000 C   0  0  1  0  0  0  0  0  0  0  0  0
    3.4888   -1.5291    0.0000 O   0  0  0  0  0  0  0  0  0  0  0  0
  1  2  1  0  0  0  0
  3  2  1  1  0  0  0
  3  4  1  0  0  0  0
  4  5  1  0  0  0  0
  5  6  1  6  0  0  0
  7  6  1  6  0  0  0
  7  8  1  0  0  0  0
  8  9  1  1  0  0  0
  8 10  1  0  0  0  0
 10 11  1  0  0  0  0
 11 12  1  0  0  0  0
 12 13  1  6  0  0  0
 12 14  1  0  0  0  0
  7 14  1  0  0  0  0
 14 15  1  1  0  0  0
  5 16  1  0  0  0  0
 16 17  1  1  0  0  0
 16 18  1  0  0  0  0
  3 18  1  0  0  0  0
 18 19  1  6  0  0  0
M  END
> <DRUGBANK_ID>
DB03870

> <DRUG_GROUPS>
experimental

> <GENERIC_NAME>
Ara-Alpha(1,3)-Xyl

> <CHEMICAL_FORMULA>
C10H18O9

> <MOLECULAR_WEIGHT>
282.2445

> <EXACT_MASS>
282.095082174

> <IUPAC_NAME>
(2S,3S,4R,5S)-4-{[(2S,3R,4R,5S)-3,4-dihydroxy-5-(hydroxymethyl)oxolan-2-yl]oxy}oxane-2,3,5-triol

> <IUPAC_TRADITIONAL_NAME>
(2S,3S,4R,5S)-4-{[(2S,3R,4R,5S)-3,4-dihydroxy-5-(hydroxymethyl)oxolan-2-yl]oxy}oxane-2,3,5-triol

> <INCHI_IDENTIFIER>
InChI=1S/C10H18O9/c11-1-4-5(13)6(14)10(18-4)19-8-3(12)2-17-9(16)7(8)15/h3-16H,1-2H2/t3-,4-,5-,6+,7-,8+,9-,10-/m0/s1

> <INCHI_KEY>
InChIKey=XAQWBYJKZNCZPL-BAUARHHTSA-N

> <SMILES>
OC[C@@H]1O[C@@H](O[C@@H]2[C@@H](O)CO[C@H](O)[C@H]2O)[C@H](O)[C@H]1O

> <JCHEM_ACCEPTOR_COUNT>
9

> <JCHEM_DONOR_COUNT>
6

> <JCHEM_ACIDIC_PKA>
11.27

> <JCHEM_BASIC_PKA>
-3

> <JCHEM_PHYSIOLOGICAL_CHARGE>
0

> <ALOGPS_LOGP>
-2.9

> <JCHEM_LOGP>
-3.4

> <ALOGPS_LOGS>
0.36

> <JCHEM_POLARIZABILITY>
25.68

> <JCHEM_POLAR_SURFACE_AREA>
149.07

> <JCHEM_REFRACTIVITY>
56.41

> <JCHEM_ROTATABLE_BOND_COUNT>
3

> <ALOGPS_SOLUBILITY>
6.43e+02 g/l __ 

$$$$
