
  Mrv0541 02231217152D          

 13 13  0  0  1  0            999 V2000
    0.0000   -1.6500    0.0000 N    0  0  0  0  0  0  0  0  0  0  0  0
    0.7145   -1.2375    0.0000 C    0  0  2  0  0  0  0  0  0  0  0  0
    1.4289   -1.6500    0.0000 C    0  0  0  0  0  0  0  0  0  0  0  0
    1.4289   -2.4750    0.0000 O    0  0  0  0  0  0  0  0  0  0  0  0
    2.1434   -1.2375    0.0000 O    0  0  0  0  0  0  0  0  0  0  0  0
    0.7145   -0.4125    0.0000 C    0  0  0  0  0  0  0  0  0  0  0  0
    0.0000    0.0000    0.0000 C    0  0  0  0  0  0  0  0  0  0  0  0
    0.0000    0.8250    0.0000 C    0  0  0  0  0  0  0  0  0  0  0  0
   -0.7145    1.2375    0.0000 Cl   0  0  0  0  0  0  0  0  0  0  0  0
    0.7145    1.2375    0.0000 C    0  0  0  0  0  0  0  0  0  0  0  0
    0.7145    2.0625    0.0000 O    0  0  0  0  0  0  0  0  0  0  0  0
    1.4289    0.8250    0.0000 C    0  0  0  0  0  0  0  0  0  0  0  0
    1.4289    0.0000    0.0000 C    0  0  0  0  0  0  0  0  0  0  0  0
  2  1  1  1  0  0  0
  2  3  1  0  0  0  0
  3  4  1  0  0  0  0
  3  5  2  0  0  0  0
  2  6  1  0  0  0  0
  6  7  2  0  0  0  0
  7  8  1  0  0  0  0
  8  9  1  0  0  0  0
  8 10  2  0  0  0  0
 10 11  1  0  0  0  0
 10 12  1  0  0  0  0
 12 13  2  0  0  0  0
  6 13  1  0  0  0  0
M  END
> <DRUGBANK_ID>
DB03898

> <DRUG_GROUPS>
experimental

> <GENERIC_NAME>
3-Chloro-4-Hydroxyphenylglycine

> <CHEMICAL_FORMULA>
C8H8ClNO3

> <MOLECULAR_WEIGHT>
201.607

> <EXACT_MASS>
201.019270834

> <IUPAC_NAME>
(2S)-2-amino-2-(3-chloro-4-hydroxyphenyl)acetic acid

> <IUPAC_TRADITIONAL_NAME>
(S)-amino(3-chloro-4-hydroxyphenyl)acetic acid

> <INCHI_IDENTIFIER>
InChI=1S/C8H8ClNO3/c9-5-3-4(1-2-6(5)11)7(10)8(12)13/h1-3,7,11H,10H2,(H,12,13)/t7-/m0/s1

> <INCHI_KEY>
InChIKey=FLZDFFKRJPLFGS-ZETCQYMHSA-N

> <SMILES>
N[C@H](C(O)=O)C1=CC(Cl)=C(O)C=C1

> <JCHEM_ACCEPTOR_COUNT>
4

> <JCHEM_DONOR_COUNT>
3

> <JCHEM_ACIDIC_PKA>
1.28

> <JCHEM_BASIC_PKA>
8.85

> <JCHEM_PHYSIOLOGICAL_CHARGE>
0

> <ALOGPS_LOGP>
-1.8

> <JCHEM_LOGP>
-1.2

> <ALOGPS_LOGS>
-2

> <JCHEM_POLARIZABILITY>
18.36

> <JCHEM_POLAR_SURFACE_AREA>
83.55

> <JCHEM_REFRACTIVITY>
47.15

> <JCHEM_ROTATABLE_BOND_COUNT>
2

> <ALOGPS_SOLUBILITY>
2.01e+00 g/l __ 

$$$$
