
  Mrv0541 02231217042D          

 10 12  0  0  0  0            999 V2000
    0.1163   -2.0322    0.0000 C   0  0  0  0  0  0  0  0  0  0  0  0
    0.8517   -1.6585    0.0000 C   0  0  1  0  0  0  0  0  0  0  0  0
    0.8517   -0.9111    0.0000 C   0  0  0  0  0  0  0  0  0  0  0  0
    1.3012   -0.1208    0.0000 C   0  0  1  0  0  0  0  0  0  0  0  0
    0.5657   -0.4945    0.0000 C   0  0  0  0  0  0  0  0  0  0  0  0
    0.5657   -1.2419    0.0000 C   0  0  2  0  0  0  0  0  0  0  0  0
    1.3012   -1.6156    0.0000 C   0  0  0  0  0  0  0  0  0  0  0  0
    2.0368   -1.2419    0.0000 C   0  0  1  0  0  0  0  0  0  0  0  0
    1.5873   -2.0322    0.0000 C   0  0  0  0  0  0  0  0  0  0  0  0
    2.0368   -0.4945    0.0000 C   0  0  0  0  0  0  0  0  0  0  0  0
  2  1  1  1  0  0  0
  4 10  1  0  0  0  0
  4  3  1  6  0  0  0
  4  5  1  0  0  0  0
  2  9  1  0  0  0  0
  1  6  1  0  0  0  0
  6  7  1  0  0  0  0
  8  7  1  1  0  0  0
  8  9  1  0  0  0  0
  6  5  1  6  0  0  0
  8 10  1  0  0  0  0
  2  3  1  0  0  0  0
M  END
> <DRUGBANK_ID>
DB03627

> <DRUG_GROUPS>
experimental

> <GENERIC_NAME>
Adamantane

> <CHEMICAL_FORMULA>
C10H16

> <MOLECULAR_WEIGHT>
136.234

> <EXACT_MASS>
136.125200512

> <IUPAC_NAME>
adamantane

> <IUPAC_TRADITIONAL_NAME>
adamantane

> <INCHI_IDENTIFIER>
InChI=1S/C10H16/c1-7-2-9-4-8(1)5-10(3-7)6-9/h7-10H,1-6H2/t7-,8+,9-,10+

> <INCHI_KEY>
InChIKey=ORILYTVJVMAKLC-YNFQOJQRSA-N

> <SMILES>
C1C2CC3CC1CC(C2)C3

> <JCHEM_ACCEPTOR_COUNT>
0

> <JCHEM_DONOR_COUNT>
0

> <JCHEM_PHYSIOLOGICAL_CHARGE>
0

> <ALOGPS_LOGP>
4.22

> <JCHEM_LOGP>
2.89

> <ALOGPS_LOGS>
-4.4

> <JCHEM_POLARIZABILITY>
16.61

> <JCHEM_POLAR_SURFACE_AREA>
0

> <JCHEM_REFRACTIVITY>
42.2

> <JCHEM_ROTATABLE_BOND_COUNT>
0

> <ALOGPS_SOLUBILITY>
4.91e-03 g/l __ 

$$$$
