
  Mrv0541 02231217032D          

 31 33  0  0  1  0            999 V2000
   -2.8579   -1.6500    0.0000 N   0  0  0  0  0  0  0  0  0  0  0  0
   -2.1434   -1.2375    0.0000 C   0  0  0  0  0  0  0  0  0  0  0  0
   -1.4289   -1.6500    0.0000 C   0  0  2  0  0  0  0  0  0  0  0  0
   -0.7145   -1.2375    0.0000 O   0  0  0  0  0  0  0  0  0  0  0  0
    0.0000   -1.6500    0.0000 C   0  0  2  0  0  0  0  0  0  0  0  0
    0.7145   -1.2375    0.0000 O   0  0  0  0  0  0  0  0  0  0  0  0
    0.7145   -0.4125    0.0000 C   0  0  1  0  0  0  0  0  0  0  0  0
    0.0000    0.0000    0.0000 C   0  0  2  0  0  0  0  0  0  0  0  0
   -0.7145   -0.4125    0.0000 N   0  0  0  0  0  0  0  0  0  0  0  0
    0.0000    0.8250    0.0000 C   0  0  0  0  0  0  0  0  0  0  0  0
    0.7145    1.2375    0.0000 C   0  0  2  0  0  0  0  0  0  0  0  0
    0.7145    2.0625    0.0000 N   0  0  0  0  0  0  0  0  0  0  0  0
    1.4289    0.8250    0.0000 C   0  0  1  0  0  0  0  0  0  0  0  0
    2.1434    1.2375    0.0000 O   0  0  0  0  0  0  0  0  0  0  0  0
    1.4289    0.0000    0.0000 C   0  0  2  0  0  0  0  0  0  0  0  0
    2.1434   -0.4125    0.0000 O   0  0  0  0  0  0  0  0  0  0  0  0
    2.1434   -1.2375    0.0000 C   0  0  2  0  0  0  0  0  0  0  0  0
    1.4760   -1.7224    0.0000 O   0  0  0  0  0  0  0  0  0  0  0  0
    1.7309   -2.5070    0.0000 C   0  0  1  0  0  0  0  0  0  0  0  0
    1.2460   -3.1745    0.0000 C   0  0  0  0  0  0  0  0  0  0  0  0
    0.4255   -3.0882    0.0000 O   0  0  0  0  0  0  0  0  0  0  0  0
    2.5559   -2.5070    0.0000 C   0  0  2  0  0  0  0  0  0  0  0  0
    3.0408   -3.1745    0.0000 O   0  0  0  0  0  0  0  0  0  0  0  0
    2.8109   -1.7224    0.0000 C   0  0  1  0  0  0  0  0  0  0  0  0
    3.5955   -1.4675    0.0000 O   0  0  0  0  0  0  0  0  0  0  0  0
    0.0000   -2.4750    0.0000 C   0  0  1  0  0  0  0  0  0  0  0  0
    0.7145   -2.8875    0.0000 N   0  0  0  0  0  0  0  0  0  0  0  0
   -0.7145   -2.8875    0.0000 C   0  0  2  0  0  0  0  0  0  0  0  0
   -0.7145   -3.7125    0.0000 O   0  0  0  0  0  0  0  0  0  0  0  0
   -1.4289   -2.4750    0.0000 C   0  0  1  0  0  0  0  0  0  0  0  0
   -2.1434   -2.8875    0.0000 O   0  0  0  0  0  0  0  0  0  0  0  0
  1  2  1  0  0  0  0
  3  2  1  6  0  0  0
  3  4  1  0  0  0  0
  4  5  1  0  0  0  0
  5  6  1  6  0  0  0
  7  6  1  1  0  0  0
  7  8  1  0  0  0  0
  8  9  1  6  0  0  0
  8 10  1  0  0  0  0
 10 11  1  0  0  0  0
 11 12  1  6  0  0  0
 11 13  1  0  0  0  0
 13 14  1  1  0  0  0
 13 15  1  0  0  0  0
  7 15  1  0  0  0  0
 15 16  1  6  0  0  0
 17 16  1  1  0  0  0
 17 18  1  0  0  0  0
 18 19  1  0  0  0  0
 19 20  1  6  0  0  0
 20 21  1  0  0  0  0
 19 22  1  0  0  0  0
 22 23  1  1  0  0  0
 22 24  1  0  0  0  0
 17 24  1  0  0  0  0
 24 25  1  6  0  0  0
  5 26  1  0  0  0  0
 26 27  1  1  0  0  0
 26 28  1  0  0  0  0
 28 29  1  6  0  0  0
 28 30  1  0  0  0  0
  3 30  1  0  0  0  0
 30 31  1  1  0  0  0
M  END
> <DRUGBANK_ID>
DB03615

> <DRUG_GROUPS>
experimental

> <GENERIC_NAME>
Ribostamycin

> <SYNONYMS>
Vistamycin

> <CHEMICAL_FORMULA>
C17H34N4O10

> <MOLECULAR_WEIGHT>
454.4727

> <EXACT_MASS>
454.227493328

> <IUPAC_NAME>
(2S,3R,4S,5S,6R)-5-amino-2-(aminomethyl)-6-{[(1S,2S,3R,4S,6R)-4,6-diamino-2-{[(2S,3R,4R,5S)-3,4-dihydroxy-5-(hydroxymethyl)oxolan-2-yl]oxy}-3-hydroxycyclohexyl]oxy}oxane-3,4-diol

> <IUPAC_TRADITIONAL_NAME>
ribostamycin

> <INCHI_IDENTIFIER>
InChI=1S/C17H34N4O10/c18-2-6-10(24)12(26)8(21)16(28-6)30-14-5(20)1-4(19)9(23)15(14)31-17-13(27)11(25)7(3-22)29-17/h4-17,22-27H,1-3,18-21H2/t4-,5+,6-,7-,8-,9+,10-,11-,12-,13+,14-,15-,16+,17-/m0/s1

> <INCHI_KEY>
InChIKey=NSKGQURZWSPSBC-NLZFXWNVSA-N

> <SMILES>
NC[C@@H]1O[C@H](O[C@H]2[C@H](N)C[C@H](N)[C@@H](O)[C@@H]2O[C@@H]2O[C@@H](CO)[C@H](O)[C@H]2O)[C@@H](N)[C@H](O)[C@H]1O

> <JCHEM_ACCEPTOR_COUNT>
14

> <JCHEM_DONOR_COUNT>
10

> <JCHEM_ACIDIC_PKA>
12.19

> <JCHEM_BASIC_PKA>
9.93

> <JCHEM_PHYSIOLOGICAL_CHARGE>
4

> <ALOGPS_LOGP>
-2.9

> <JCHEM_LOGP>
-6.4

> <ALOGPS_LOGS>
-0.71

> <JCHEM_POLARIZABILITY>
44.43

> <JCHEM_POLAR_SURFACE_AREA>
262.38

> <JCHEM_REFRACTIVITY>
100.17

> <JCHEM_ROTATABLE_BOND_COUNT>
6

> <ALOGPS_SOLUBILITY>
8.87e+01 g/l __ 

$$$$
