
  Mrv0541 02231217182D          

 33 37  0  0  1  0            999 V2000
    0.2122    0.6611    0.0000 O   0  0  0  0  0  0  0  0  0  0  0  0
    0.0407   -0.1459    0.0000 O   0  0  0  0  0  0  0  0  0  0  0  0
    0.6538   -0.6979    0.0000 C   0  0  1  0  0  0  0  0  0  0  0  0
    0.0407   -1.2500    0.0000 C   0  0  0  0  0  0  0  0  0  0  0  0
   -0.7439   -0.9950    0.0000 C   0  0  0  0  0  0  0  0  0  0  0  0
   -1.3570   -1.5471    0.0000 C   0  0  0  0  0  0  0  0  0  0  0  0
   -2.1416   -1.2921    0.0000 C   0  0  0  0  0  0  0  0  0  0  0  0
   -2.3132   -0.4852    0.0000 C   0  0  0  0  0  0  0  0  0  0  0  0
   -3.0978   -0.2302    0.0000 O   0  0  0  0  0  0  0  0  0  0  0  0
   -1.7001    0.0669    0.0000 C   0  0  0  0  0  0  0  0  0  0  0  0
   -0.9154   -0.1881    0.0000 C   0  0  0  0  0  0  0  0  0  0  0  0
    1.1387   -0.0305    0.0000 N   0  0  0  0  0  0  0  0  0  0  0  0
    1.9233   -0.2854    0.0000 C   0  0  0  0  0  0  0  0  0  0  0  0
    2.6378    0.1271    0.0000 C   0  0  2  0  0  0  0  0  0  0  0  0
    2.6378    0.9521    0.0000 C   0  0  0  0  0  0  0  0  0  0  0  0
    3.3523    1.3646    0.0000 C   0  0  0  0  0  0  0  0  0  0  0  0
    3.4385    2.1850    0.0000 C   0  0  0  0  0  0  0  0  0  0  0  0
    4.2455    2.3566    0.0000 C   0  0  0  0  0  0  0  0  0  0  0  0
    4.6580    1.6421    0.0000 C   0  0  0  0  0  0  0  0  0  0  0  0
    4.1060    1.0290    0.0000 C   0  0  0  0  0  0  0  0  0  0  0  0
    3.3523   -0.2854    0.0000 N   0  0  0  0  0  0  0  0  0  0  0  0
    3.3523   -1.1104    0.0000 C   0  0  0  0  0  0  0  0  0  0  0  0
    2.6378   -1.5229    0.0000 C   0  0  0  0  0  0  0  0  0  0  0  0
    1.9233   -1.1104    0.0000 N   0  0  0  0  0  0  0  0  0  0  0  0
    1.1387   -1.3654    0.0000 C   0  0  0  0  0  0  0  0  0  0  0  0
    0.8838   -2.1500    0.0000 O   0  0  0  0  0  0  0  0  0  0  0  0
    4.0668   -1.5229    0.0000 C   0  0  0  0  0  0  0  0  0  0  0  0
    4.7812   -1.1104    0.0000 C   0  0  0  0  0  0  0  0  0  0  0  0
    5.4957   -1.5229    0.0000 C   0  0  0  0  0  0  0  0  0  0  0  0
    5.4957   -2.3479    0.0000 C   0  0  0  0  0  0  0  0  0  0  0  0
    6.2102   -2.7604    0.0000 O   0  0  0  0  0  0  0  0  0  0  0  0
    4.7812   -2.7604    0.0000 C   0  0  0  0  0  0  0  0  0  0  0  0
    4.0668   -2.3479    0.0000 C   0  0  0  0  0  0  0  0  0  0  0  0
  1  2  1  0  0  0  0
  3  2  1  1  0  0  0
  3  4  1  6  0  0  0
  4  5  1  0  0  0  0
  5  6  2  0  0  0  0
  6  7  1  0  0  0  0
  7  8  2  0  0  0  0
  8  9  1  0  0  0  0
  8 10  1  0  0  0  0
 10 11  2  0  0  0  0
  5 11  1  0  0  0  0
  3 12  1  0  0  0  0
 12 13  2  0  0  0  0
 13 14  1  0  0  0  0
 14 15  1  6  0  0  0
 15 16  1  0  0  0  0
 16 17  1  0  0  0  0
 17 18  1  0  0  0  0
 18 19  1  0  0  0  0
 19 20  1  0  0  0  0
 16 20  1  0  0  0  0
 14 21  1  0  0  0  0
 21 22  1  0  0  0  0
 22 23  2  0  0  0  0
 23 24  1  0  0  0  0
 13 24  1  0  0  0  0
 24 25  1  0  0  0  0
  3 25  1  0  0  0  0
 25 26  2  0  0  0  0
 22 27  1  0  0  0  0
 27 28  2  0  0  0  0
 28 29  1  0  0  0  0
 29 30  2  0  0  0  0
 30 31  1  0  0  0  0
 30 32  1  0  0  0  0
 32 33  2  0  0  0  0
 27 33  1  0  0  0  0
M  END
> <DRUGBANK_ID>
DB03960

> <DRUG_GROUPS>
experimental

> <GENERIC_NAME>
Cp-Coeleneterazine

> <CHEMICAL_FORMULA>
C25H27N3O5

> <MOLECULAR_WEIGHT>
449.499

> <EXACT_MASS>
449.195070989

> <IUPAC_NAME>
(2R,8S)-8-(cyclopentylmethyl)-2-hydroperoxy-6-(4-hydroxyphenyl)-2-[(4-hydroxyphenyl)methyl]-2H,3H,7H,8H-imidazo[1,2-a]pyrazin-3-one

> <IUPAC_TRADITIONAL_NAME>
cp-coeleneterazine

> <INCHI_IDENTIFIER>
InChI=1S/C25H27N3O5/c29-19-9-5-17(6-10-19)14-25(33-32)24(31)28-15-22(18-7-11-20(30)12-8-18)26-21(23(28)27-25)13-16-3-1-2-4-16/h5-12,15-16,21,26,29-30,32H,1-4,13-14H2/t21-,25+/m0/s1

> <INCHI_KEY>
InChIKey=XOSFCMOTHZJUQK-SQJMNOBHSA-N

> <SMILES>
OO[C@@]1(CC2=CC=C(O)C=C2)N=C2[C@H](CC3CCCC3)NC(=CN2C1=O)C1=CC=C(O)C=C1

> <JCHEM_ACCEPTOR_COUNT>
7

> <JCHEM_DONOR_COUNT>
4

> <JCHEM_ACIDIC_PKA>
9.2

> <JCHEM_BASIC_PKA>
4.3

> <JCHEM_PHYSIOLOGICAL_CHARGE>
0

> <ALOGPS_LOGP>
3.46

> <JCHEM_LOGP>
4.02

> <ALOGPS_LOGS>
-3.9

> <JCHEM_POLARIZABILITY>
48.54

> <JCHEM_POLAR_SURFACE_AREA>
114.62

> <JCHEM_REFRACTIVITY>
122.19

> <JCHEM_ROTATABLE_BOND_COUNT>
6

> <ALOGPS_SOLUBILITY>
5.73e-02 g/l __ 

$$$$
