
  Mrv0541 02231217002D          

 14 15  0  0  1  0            999 V2000
    0.2076   -1.8785    0.0000 O   0  0  0  0  0  0  0  0  0  0  0  0
    1.0146   -1.7070    0.0000 C   0  0  0  0  0  0  0  0  0  0  0  0
    1.2695   -0.9224    0.0000 C   0  0  1  0  0  0  0  0  0  0  0  0
    0.7846   -0.2549    0.0000 C   0  0  2  0  0  0  0  0  0  0  0  0
   -0.0404   -0.2549    0.0000 O   0  0  0  0  0  0  0  0  0  0  0  0
    1.2695    0.4125    0.0000 C   0  0  1  0  0  0  0  0  0  0  0  0
    1.0146    1.1971    0.0000 O   0  0  0  0  0  0  0  0  0  0  0  0
    2.0542    0.1576    0.0000 C   0  0  1  0  0  0  0  0  0  0  0  0
    2.8388    0.4125    0.0000 N   0  0  0  0  0  0  0  0  0  0  0  0
    3.3237   -0.2549    0.0000 C   0  0  0  0  0  0  0  0  0  0  0  0
    2.8388   -0.9224    0.0000 O   0  0  0  0  0  0  0  0  0  0  0  0
    2.0542   -0.6674    0.0000 C   0  0  1  0  0  0  0  0  0  0  0  0
    4.1487   -0.2549    0.0000 N   0  0  0  0  0  0  0  0  0  0  0  0
    4.5612    0.4595    0.0000 C   0  0  0  0  0  0  0  0  0  0  0  0
  1  2  1  0  0  0  0
  3  2  1  1  0  0  0
  3  4  1  0  0  0  0
  4  5  1  6  0  0  0
  4  6  1  0  0  0  0
  6  7  1  1  0  0  0
  6  8  1  0  0  0  0
  8  9  1  1  0  0  0
  9 10  2  0  0  0  0
 10 11  1  0  0  0  0
 12 11  1  1  0  0  0
  3 12  1  0  0  0  0
  8 12  1  0  0  0  0
 10 13  1  0  0  0  0
 13 14  2  0  0  0  0
M  END
> <DRUGBANK_ID>
DB03539

> <DRUG_GROUPS>
experimental

> <GENERIC_NAME>
2-(Acetylamino)-2-Deoxy-6-O-Methyl-Alpha-D-Allopyranose

> <CHEMICAL_FORMULA>
C8H12N2O4

> <MOLECULAR_WEIGHT>
200.1919

> <EXACT_MASS>
200.079706882

> <IUPAC_NAME>
(3aR,4S,5S,6S,6aS)-6-(hydroxymethyl)-2-(methylideneamino)-3aH,4H,5H,6H,6aH-cyclopenta[d][1,3]oxazole-4,5-diol

> <IUPAC_TRADITIONAL_NAME>
(3aR,4S,5S,6S,6aS)-6-(hydroxymethyl)-2-(methylideneamino)-3aH,4H,5H,6H,6aH-cyclopenta[d][1,3]oxazole-4,5-diol

> <INCHI_IDENTIFIER>
InChI=1S/C8H12N2O4/c1-9-8-10-4-6(13)5(12)3(2-11)7(4)14-8/h3-7,11-13H,1-2H2/t3-,4+,5-,6-,7-/m0/s1

> <INCHI_KEY>
InChIKey=YJMIXNAZGREWGZ-REQIZBSHSA-N

> <SMILES>
OC[C@H]1[C@H](O)[C@@H](O)[C@H]2N=C(O[C@@H]12)N=C

> <JCHEM_ACCEPTOR_COUNT>
5

> <JCHEM_DONOR_COUNT>
3

> <JCHEM_ACIDIC_PKA>
13.12

> <JCHEM_BASIC_PKA>
2.66

> <JCHEM_PHYSIOLOGICAL_CHARGE>
0

> <ALOGPS_LOGP>
-1.4

> <JCHEM_LOGP>
-2.1

> <ALOGPS_LOGS>
-1.2

> <JCHEM_POLARIZABILITY>
18.91

> <JCHEM_POLAR_SURFACE_AREA>
94.64

> <JCHEM_REFRACTIVITY>
44.95

> <JCHEM_ROTATABLE_BOND_COUNT>
1

> <ALOGPS_SOLUBILITY>
1.18e+01 g/l __ 

$$$$
