
  Mrv0541 02231216402D          

 14 14  0  0  1  0            999 V2000
    2.1913    1.6913    0.0000 C   0  0  0  0  0  0  0  0  0  0  0  0
    2.0198    0.8843    0.0000 C   0  0  2  0  0  0  0  0  0  0  0  0
    2.6329    0.3323    0.0000 N   0  0  0  0  0  0  0  0  0  0  0  0
    1.2352    0.6294    0.0000 C   0  0  0  0  0  0  0  0  0  0  0  0
    0.9803   -0.1553    0.0000 N   0  0  0  0  0  0  0  0  0  0  0  0
    0.1553   -0.1553    0.0000 C   0  0  0  0  0  0  0  0  0  0  0  0
   -0.3297   -0.8227    0.0000 C   0  0  0  0  0  0  0  0  0  0  0  0
   -0.0997    0.6294    0.0000 C   0  0  0  0  0  0  0  0  0  0  0  0
   -0.8843    0.8843    0.0000 O   0  0  0  0  0  0  0  0  0  0  0  0
    0.5678    1.1143    0.0000 N   0  0  0  0  0  0  0  0  0  0  0  0
    0.5678    1.9393    0.0000 C   0  0  0  0  0  0  0  0  0  0  0  0
   -0.1467    2.3518    0.0000 C   0  0  0  0  0  0  0  0  0  0  0  0
   -0.8612    1.9393    0.0000 O   0  0  0  0  0  0  0  0  0  0  0  0
   -0.1467    3.1768    0.0000 O   0  0  0  0  0  0  0  0  0  0  0  0
  1  2  1  0  0  0  0
  2  3  1  6  0  0  0
  2  4  1  0  0  0  0
  4  5  2  0  0  0  0
  5  6  1  0  0  0  0
  6  7  1  0  0  0  0
  6  8  2  0  0  0  0
  8  9  1  0  0  0  0
  8 10  1  0  0  0  0
  4 10  1  0  0  0  0
 10 11  1  0  0  0  0
 11 12  1  0  0  0  0
 12 13  1  0  0  0  0
 12 14  2  0  0  0  0
M  END
> <DRUGBANK_ID>
DB03071

> <DRUG_GROUPS>
experimental

> <GENERIC_NAME>
4-Methylidene-5-One

> <CHEMICAL_FORMULA>
C8H13N3O3

> <MOLECULAR_WEIGHT>
199.2071

> <EXACT_MASS>
199.095691297

> <IUPAC_NAME>
2-{2-[(1S)-1-aminoethyl]-5-hydroxy-4-methyl-1H-imidazol-1-yl}acetic acid

> <IUPAC_TRADITIONAL_NAME>
4-methylidene-5-one

> <INCHI_IDENTIFIER>
InChI=1S/C8H13N3O3/c1-4(9)7-10-5(2)8(14)11(7)3-6(12)13/h4,14H,3,9H2,1-2H3,(H,12,13)/t4-/m0/s1

> <INCHI_KEY>
InChIKey=GYCBVEGTLQBIBF-BYPYZUCNSA-N

> <SMILES>
C[C@H](N)C1=NC(C)=C(O)N1CC(O)=O

> <JCHEM_ACCEPTOR_COUNT>
5

> <JCHEM_DONOR_COUNT>
3

> <JCHEM_ACIDIC_PKA>
3.14

> <JCHEM_BASIC_PKA>
8.09

> <JCHEM_PHYSIOLOGICAL_CHARGE>
0

> <ALOGPS_LOGP>
-2.7

> <JCHEM_LOGP>
-3

> <ALOGPS_LOGS>
-1.3

> <JCHEM_POLARIZABILITY>
19.91

> <JCHEM_POLAR_SURFACE_AREA>
101.37

> <JCHEM_REFRACTIVITY>
48.11

> <JCHEM_ROTATABLE_BOND_COUNT>
3

> <ALOGPS_SOLUBILITY>
1.04e+01 g/l __ 

$$$$
