
  Mrv0541 02231217132D          

 21 22  0  0  1  0            999 V2000
   -2.0886   -0.6343    0.0000 C   0  0  0  0  0  0  0  0  0  0  0  0
   -1.4211   -0.1494    0.0000 C   0  0  0  0  0  0  0  0  0  0  0  0
   -1.5074    0.6711    0.0000 O   0  0  0  0  0  0  0  0  0  0  0  0
   -0.6674   -0.4849    0.0000 N   0  0  0  0  0  0  0  0  0  0  0  0
    0.0000    0.0000    0.0000 N   0  0  0  0  0  0  0  0  0  0  0  0
    0.0000    0.8250    0.0000 C   0  0  0  0  0  0  0  0  0  0  0  0
   -0.6674    1.3099    0.0000 O   0  0  0  0  0  0  0  0  0  0  0  0
    0.7846    1.0799    0.0000 N   0  0  0  0  0  0  0  0  0  0  0  0
    1.2695    0.4125    0.0000 C   0  0  1  0  0  0  0  0  0  0  0  0
    1.6820    1.1270    0.0000 O   0  0  0  0  0  0  0  0  0  0  0  0
    2.5070    1.1270    0.0000 C   0  0  2  0  0  0  0  0  0  0  0  0
    2.9195    1.8414    0.0000 C   0  0  0  0  0  0  0  0  0  0  0  0
    2.5070    2.5559    0.0000 O   0  0  0  0  0  0  0  0  0  0  0  0
    2.9195    0.4125    0.0000 C   0  0  1  0  0  0  0  0  0  0  0  0
    3.7445    0.4125    0.0000 O   0  0  0  0  0  0  0  0  0  0  0  0
    2.5070   -0.3020    0.0000 C   0  0  2  0  0  0  0  0  0  0  0  0
    2.9195   -1.0164    0.0000 O   0  0  0  0  0  0  0  0  0  0  0  0
    1.6820   -0.3020    0.0000 C   0  0  1  0  0  0  0  0  0  0  0  0
    1.2695   -1.0164    0.0000 O   0  0  0  0  0  0  0  0  0  0  0  0
    0.7846   -0.2549    0.0000 C   0  0  0  0  0  0  0  0  0  0  0  0
    0.7846   -1.0799    0.0000 O   0  0  0  0  0  0  0  0  0  0  0  0
  1  2  1  0  0  0  0
  2  3  2  0  0  0  0
  2  4  1  0  0  0  0
  4  5  1  0  0  0  0
  5  6  1  0  0  0  0
  6  7  2  0  0  0  0
  6  8  1  0  0  0  0
  8  9  1  0  0  0  0
  9 10  1  6  0  0  0
 10 11  1  0  0  0  0
 11 12  1  6  0  0  0
 12 13  1  0  0  0  0
 11 14  1  0  0  0  0
 14 15  1  1  0  0  0
 14 16  1  0  0  0  0
 16 17  1  6  0  0  0
 16 18  1  0  0  0  0
  9 18  1  0  0  0  0
 18 19  1  1  0  0  0
  9 20  1  0  0  0  0
  5 20  1  0  0  0  0
 20 21  2  0  0  0  0
M  END
> <DRUGBANK_ID>
DB03835

> <DRUG_GROUPS>
experimental

> <GENERIC_NAME>
N-(8,9,10-Trihydroxy-7-Hydroxymethyl-2,4-Dioxo-6-Oxa-1,3-Diaza-Spiro[4.5]Dec-3-Yl-Acetamide

> <CHEMICAL_FORMULA>
C10H15N3O8

> <MOLECULAR_WEIGHT>
305.2414

> <EXACT_MASS>
305.085914471

> <IUPAC_NAME>
N-[(5R,7R,8S,9S,10R)-8,9,10-trihydroxy-7-(hydroxymethyl)-2,4-dioxo-6-oxa-1,3-diazaspiro[4.5]decan-3-yl]acetamide

> <IUPAC_TRADITIONAL_NAME>
N-[(5R,7R,8S,9S,10R)-8,9,10-trihydroxy-7-(hydroxymethyl)-2,4-dioxo-6-oxa-1,3-diazaspiro[4.5]decan-3-yl]acetamide

> <INCHI_IDENTIFIER>
InChI=1S/C10H15N3O8/c1-3(15)12-13-8(19)10(11-9(13)20)7(18)6(17)5(16)4(2-14)21-10/h4-7,14,16-18H,2H2,1H3,(H,11,20)(H,12,15)/t4-,5-,6+,7-,10-/m1/s1

> <INCHI_KEY>
InChIKey=MAHIOGAAEAWGLR-WIWHXQPGSA-N

> <SMILES>
CC(=O)NN1C(=O)N[C@]2(O[C@H](CO)[C@@H](O)[C@H](O)[C@H]2O)C1=O

> <JCHEM_ACCEPTOR_COUNT>
8

> <JCHEM_DONOR_COUNT>
6

> <JCHEM_ACIDIC_PKA>
8.95

> <JCHEM_BASIC_PKA>
-3

> <JCHEM_PHYSIOLOGICAL_CHARGE>
0

> <ALOGPS_LOGP>
-2

> <JCHEM_LOGP>
-3.9

> <ALOGPS_LOGS>
-0.49

> <JCHEM_POLARIZABILITY>
27.02

> <JCHEM_POLAR_SURFACE_AREA>
168.66

> <JCHEM_REFRACTIVITY>
61.83

> <JCHEM_ROTATABLE_BOND_COUNT>
2

> <ALOGPS_SOLUBILITY>
9.98e+01 g/l __ 

$$$$
