
  Mrv0541 02231217142D          

 22 23  0  0  1  0            999 V2000
    2.5645    3.3000    0.0000 C   0  0  0  0  0  0  0  0  0  0  0  0
    2.5645    2.4750    0.0000 C   0  0  0  0  0  0  0  0  0  0  0  0
    3.2789    2.0625    0.0000 N   0  0  0  0  0  0  0  0  0  0  0  0
    3.2789    1.2375    0.0000 C   0  0  2  0  0  0  0  0  0  0  0  0
    3.9934    0.8250    0.0000 C   0  0  0  0  0  0  0  0  0  0  0  0
    3.9934    0.0000    0.0000 N   0  0  0  0  0  0  0  0  0  0  0  0
    4.7079   -0.4125    0.0000 C   0  0  0  0  0  0  0  0  0  0  0  0
    5.4223    0.0000    0.0000 C   0  0  0  0  0  0  0  0  0  0  0  0
    6.1368   -0.4125    0.0000 O   0  0  0  0  0  0  0  0  0  0  0  0
    6.8513    0.0000    0.0000 C   0  0  0  0  0  0  0  0  0  0  0  0
    3.2789   -0.4125    0.0000 S   0  0  0  0  0  0  0  0  0  0  0  0
    3.8092   -1.0445    0.0000 O   0  0  0  0  0  0  0  0  0  0  0  0
    2.7486   -1.0445    0.0000 O   0  0  0  0  0  0  0  0  0  0  0  0
    2.5645    0.0000    0.0000 C   0  0  0  0  0  0  0  0  0  0  0  0
    2.5645    0.8250    0.0000 C   0  0  0  0  0  0  0  0  0  0  0  0
    1.7798    1.0799    0.0000 C   0  0  0  0  0  0  0  0  0  0  0  0
    1.2949    0.4125    0.0000 C   0  0  0  0  0  0  0  0  0  0  0  0
    1.7798   -0.2549    0.0000 S   0  0  0  0  0  0  0  0  0  0  0  0
    0.4699    0.4125    0.0000 S   0  0  0  0  0  0  0  0  0  0  0  0
   -0.3551    0.4125    0.0000 N   0  0  0  0  0  0  0  0  0  0  0  0
    0.4699    1.2375    0.0000 O   0  0  0  0  0  0  0  0  0  0  0  0
    0.4699   -0.4125    0.0000 O   0  0  0  0  0  0  0  0  0  0  0  0
  1  2  1  0  0  0  0
  2  3  1  0  0  0  0
  4  3  1  6  0  0  0
  4  5  1  0  0  0  0
  5  6  1  0  0  0  0
  6  7  1  0  0  0  0
  7  8  1  0  0  0  0
  8  9  1  0  0  0  0
  9 10  1  0  0  0  0
  6 11  1  0  0  0  0
 11 12  2  0  0  0  0
 11 13  2  0  0  0  0
 11 14  1  0  0  0  0
 14 15  2  0  0  0  0
  4 15  1  0  0  0  0
 15 16  1  0  0  0  0
 16 17  2  0  0  0  0
 17 18  1  0  0  0  0
 14 18  1  0  0  0  0
 17 19  1  0  0  0  0
 19 20  1  0  0  0  0
 19 21  2  0  0  0  0
 19 22  2  0  0  0  0
M  END
> <DRUGBANK_ID>
DB03877

> <DRUG_GROUPS>
experimental

> <GENERIC_NAME>
AL4623

> <CHEMICAL_FORMULA>
C11H19N3O5S3

> <MOLECULAR_WEIGHT>
369.481

> <EXACT_MASS>
369.048682803

> <IUPAC_NAME>
(4S)-4-(ethylamino)-2-(2-methoxyethyl)-1,1-dioxo-2H,3H,4H-1$l^{6},7,2-thieno[3,2-e][1$l^{6},2]thiazine-6-sulfonamide

> <IUPAC_TRADITIONAL_NAME>
(4S)-4-(ethylamino)-2-(2-methoxyethyl)-1,1-dioxo-3H,4H-1$l^{6},7,2-thieno[3,2-e][1$l^{6},2]thiazine-6-sulfonamide

> <INCHI_IDENTIFIER>
InChI=1S/C11H19N3O5S3/c1-3-13-9-7-14(4-5-19-2)22(17,18)11-8(9)6-10(20-11)21(12,15)16/h6,9,13H,3-5,7H2,1-2H3,(H2,12,15,16)/t9-/m1/s1

> <INCHI_KEY>
InChIKey=XACIEZJJSXJZMD-SECBINFHSA-N

> <SMILES>
CCN[C@@H]1CN(CCOC)S(=O)(=O)C2=C1C=C(S2)S(N)(=O)=O

> <JCHEM_ACCEPTOR_COUNT>
6

> <JCHEM_DONOR_COUNT>
2

> <JCHEM_ACIDIC_PKA>
8.19

> <JCHEM_BASIC_PKA>
6.78

> <JCHEM_PHYSIOLOGICAL_CHARGE>
0

> <ALOGPS_LOGP>
-0.8

> <JCHEM_LOGP>
-0.73

> <ALOGPS_LOGS>
-2.5

> <JCHEM_POLARIZABILITY>
36.08

> <JCHEM_POLAR_SURFACE_AREA>
118.8

> <JCHEM_REFRACTIVITY>
82.33

> <JCHEM_ROTATABLE_BOND_COUNT>
6

> <ALOGPS_SOLUBILITY>
1.10e+00 g/l __ 

$$$$
