132
  Mrv0541 02231217142D          

 26 29  0  0  0  0            999 V2000
    3.0137   -0.2135    0.0000 C    0  0  0  0  0  0  0  0  0  0  0  0
    3.0137   -1.0385    0.0000 C    0  0  0  0  0  0  0  0  0  0  0  0
    2.2992   -1.4510    0.0000 C    0  0  0  0  0  0  0  0  0  0  0  0
    1.5848   -1.0385    0.0000 C    0  0  0  0  0  0  0  0  0  0  0  0
    1.5848   -0.2135    0.0000 C    0  0  0  0  0  0  0  0  0  0  0  0
    2.2992    0.1990    0.0000 C    0  0  0  0  0  0  0  0  0  0  0  0
    3.7282    0.1990    0.0000 C    0  0  0  0  0  0  0  0  0  0  0  0
    4.4426   -0.2135    0.0000 N    0  0  0  0  0  0  0  0  0  0  0  0
    3.7282    1.0240    0.0000 N    0  3  0  0  0  0  0  0  0  0  0  0
    0.8001   -1.2934    0.0000 N    0  0  0  0  0  0  0  0  0  0  0  0
    0.8001    0.0415    0.0000 C    0  0  0  0  0  0  0  0  0  0  0  0
    0.3152   -0.6260    0.0000 C    0  0  0  0  0  0  0  0  0  0  0  0
   -0.5098   -0.6260    0.0000 C    0  0  0  0  0  0  0  0  0  0  0  0
   -0.9223   -1.3404    0.0000 C    0  0  0  0  0  0  0  0  0  0  0  0
   -1.7473   -1.3404    0.0000 C    0  0  0  0  0  0  0  0  0  0  0  0
   -2.1598   -0.6260    0.0000 C    0  0  0  0  0  0  0  0  0  0  0  0
   -1.7473    0.0885    0.0000 C    0  0  0  0  0  0  0  0  0  0  0  0
   -0.9223    0.0885    0.0000 C    0  0  0  0  0  0  0  0  0  0  0  0
   -0.5098    0.8030    0.0000 O    0  0  0  0  0  0  0  0  0  0  0  0
   -2.1598    0.8030    0.0000 C    0  0  0  0  0  0  0  0  0  0  0  0
   -2.9848    0.8030    0.0000 C    0  0  0  0  0  0  0  0  0  0  0  0
   -3.3973    1.5175    0.0000 C    0  0  0  0  0  0  0  0  0  0  0  0
   -2.9848    2.2319    0.0000 C    0  0  0  0  0  0  0  0  0  0  0  0
   -2.1598    2.2319    0.0000 C    0  0  0  0  0  0  0  0  0  0  0  0
   -1.7473    1.5175    0.0000 C    0  0  0  0  0  0  0  0  0  0  0  0
    3.7282   -1.4510    0.0000 Cl   0  0  0  0  0  0  0  0  0  0  0  0
  1  2  1  0  0  0  0
  1  6  2  0  0  0  0
  1  7  1  0  0  0  0
  2  3  2  0  0  0  0
  2 26  1  0  0  0  0
  3  4  1  0  0  0  0
  4  5  2  0  0  0  0
  4 10  1  0  0  0  0
  5  6  1  0  0  0  0
  5 11  1  0  0  0  0
  7  8  1  0  0  0  0
  7  9  2  0  0  0  0
 10 12  1  0  0  0  0
 11 12  2  0  0  0  0
 12 13  1  0  0  0  0
 13 14  2  0  0  0  0
 13 18  1  0  0  0  0
 14 15  1  0  0  0  0
 15 16  2  0  0  0  0
 16 17  1  0  0  0  0
 17 18  2  0  0  0  0
 17 20  1  0  0  0  0
 18 19  1  0  0  0  0
 20 21  2  0  0  0  0
 20 25  1  0  0  0  0
 21 22  1  0  0  0  0
 22 23  2  0  0  0  0
 23 24  1  0  0  0  0
 24 25  2  0  0  0  0
M  END
> <DRUGBANK_ID>
DB03865

> <DRUG_GROUPS>
experimental

> <GENERIC_NAME>
6-Chloro-2-(2-Hydroxy-Biphenyl-3-Yl)-1h-Indole-5-Carboxamidine

> <CHEMICAL_FORMULA>
C21H17ClN3O

> <MOLECULAR_WEIGHT>
362.832

> <EXACT_MASS>
362.106014888

> <IUPAC_NAME>
{amino[6-chloro-2-(2-hydroxy-3-phenylphenyl)-1H-indol-5-yl]methylidene}azanium

> <IUPAC_TRADITIONAL_NAME>
{amino[6-chloro-2-(2-hydroxy-3-phenylphenyl)-1H-indol-5-yl]methylidene}azanium

> <INCHI_IDENTIFIER>
InChI=1S/C21H16ClN3O/c22-17-11-18-13(9-16(17)21(23)24)10-19(25-18)15-8-4-7-14(20(15)26)12-5-2-1-3-6-12/h1-11,25-26H,(H3,23,24)/p+1

> <INCHI_KEY>
InChIKey=FEKRWNWZMOSVBX-UHFFFAOYSA-O

> <SMILES>
NC(=[NH2+])C1=CC2=C(NC(=C2)C2=CC=CC(=C2O)C2=CC=CC=C2)C=C1Cl

> <JCHEM_ACCEPTOR_COUNT>
2

> <JCHEM_DONOR_COUNT>
4

> <JCHEM_ACIDIC_PKA>
9.27

> <JCHEM_BASIC_PKA>
10.06

> <JCHEM_PHYSIOLOGICAL_CHARGE>
1

> <ALOGPS_LOGP>
2.08

> <JCHEM_LOGP>
3.97

> <ALOGPS_LOGS>
-6.1

> <JCHEM_POLARIZABILITY>
39.76

> <JCHEM_POLAR_SURFACE_AREA>
87.63

> <JCHEM_REFRACTIVITY>
116.55

> <JCHEM_ROTATABLE_BOND_COUNT>
3

> <ALOGPS_SOLUBILITY>
2.97e-04 g/l __ 

$$$$
