
  Mrv0541 02231217032D          

  9  8  0  0  1  0            999 V2000
    2.0625    0.7145    0.0000 C   0  0  0  0  0  0  0  0  0  0  0  0
    1.2375    0.7145    0.0000 O   0  0  0  0  0  0  0  0  0  0  0  0
    0.8250    0.0000    0.0000 C   0  0  0  0  0  0  0  0  0  0  0  0
    0.0000    0.0000    0.0000 C   0  0  0  0  0  0  0  0  0  0  0  0
   -0.4125   -0.7145    0.0000 C   0  0  1  0  0  0  0  0  0  0  0  0
    0.0000   -1.4289    0.0000 N   0  0  0  0  0  0  0  0  0  0  0  0
   -1.2375   -0.7145    0.0000 C   0  0  0  0  0  0  0  0  0  0  0  0
   -1.6500   -1.4289    0.0000 O   0  0  0  0  0  0  0  0  0  0  0  0
   -1.6500    0.0000    0.0000 O   0  0  0  0  0  0  0  0  0  0  0  0
  1  2  1  0  0  0  0
  2  3  1  0  0  0  0
  3  4  2  0  0  0  0
  4  5  1  0  0  0  0
  5  6  1  1  0  0  0
  5  7  1  0  0  0  0
  7  8  1  0  0  0  0
  7  9  2  0  0  0  0
M  END
> <DRUGBANK_ID>
DB03611

> <DRUG_GROUPS>
experimental

> <GENERIC_NAME>
L-2-Amino-4-Methoxy-Cis-but-3-Enoic Acid

> <CHEMICAL_FORMULA>
C5H9NO3

> <MOLECULAR_WEIGHT>
131.1299

> <EXACT_MASS>
131.058243159

> <IUPAC_NAME>
(2R,3E)-2-amino-4-methoxybut-3-enoic acid

> <IUPAC_TRADITIONAL_NAME>
(2R,3E)-2-amino-4-methoxybut-3-enoic acid

> <INCHI_IDENTIFIER>
InChI=1S/C5H9NO3/c1-9-3-2-4(6)5(7)8/h2-4H,6H2,1H3,(H,7,8)/b3-2+/t4-/m1/s1

> <INCHI_KEY>
InChIKey=HLOPMQJRUIOMJO-FSSWKIGTSA-N

> <SMILES>
CO\C=C\[C@@H](N)C(O)=O

> <JCHEM_ACCEPTOR_COUNT>
4

> <JCHEM_DONOR_COUNT>
2

> <JCHEM_ACIDIC_PKA>
2.19

> <JCHEM_BASIC_PKA>
8.88

> <JCHEM_PHYSIOLOGICAL_CHARGE>
0

> <ALOGPS_LOGP>
-2.5

> <JCHEM_LOGP>
-2.9

> <ALOGPS_LOGS>
0.27

> <JCHEM_POLARIZABILITY>
12.51

> <JCHEM_POLAR_SURFACE_AREA>
72.55

> <JCHEM_REFRACTIVITY>
31.64

> <JCHEM_ROTATABLE_BOND_COUNT>
3

> <ALOGPS_SOLUBILITY>
2.42e+02 g/l __ 

$$$$
