HQQ
  Mrv0541 02231216532D          

 23 25  0  0  0  0            999 V2000
   -0.4477   -2.3748    0.0000 N   0  0  0  0  0  0  0  0  0  0  0  0
   -1.1621   -2.7873    0.0000 C   0  0  0  0  0  0  0  0  0  0  0  0
   -1.1621   -3.6123    0.0000 O   0  0  0  0  0  0  0  0  0  0  0  0
   -1.8766   -2.3748    0.0000 N   0  0  0  0  0  0  0  0  0  0  0  0
   -1.8766   -1.5498    0.0000 C   0  0  0  0  0  0  0  0  0  0  0  0
   -2.5911   -1.1373    0.0000 O   0  0  0  0  0  0  0  0  0  0  0  0
   -1.1621   -1.1373    0.0000 C   0  0  0  0  0  0  0  0  0  0  0  0
   -0.4477   -1.5498    0.0000 C   0  0  0  0  0  0  0  0  0  0  0  0
    0.2668   -1.1373    0.0000 O   0  0  0  0  0  0  0  0  0  0  0  0
   -1.5494   -0.4088    0.0000 C   0  0  0  0  0  0  0  0  0  0  0  0
   -0.7748   -0.4088    0.0000 C   0  0  0  0  0  0  0  0  0  0  0  0
   -1.2120    0.2908    0.0000 C   0  0  0  0  0  0  0  0  0  0  0  0
   -0.8247    1.0192    0.0000 C   0  0  0  0  0  0  0  0  0  0  0  0
   -0.0002    1.0480    0.0000 C   0  0  0  0  0  0  0  0  0  0  0  0
    0.4370    0.3484    0.0000 C   0  0  0  0  0  0  0  0  0  0  0  0
    0.0497   -0.3800    0.0000 C   0  0  0  0  0  0  0  0  0  0  0  0
    0.3871    1.7765    0.0000 O   0  0  0  0  0  0  0  0  0  0  0  0
    1.2116    1.8052    0.0000 C   0  0  0  0  0  0  0  0  0  0  0  0
    1.5989    2.5337    0.0000 C   0  0  0  0  0  0  0  0  0  0  0  0
    2.4234    2.5625    0.0000 C   0  0  0  0  0  0  0  0  0  0  0  0
    2.8606    1.8628    0.0000 C   0  0  0  0  0  0  0  0  0  0  0  0
    2.4733    1.1344    0.0000 C   0  0  0  0  0  0  0  0  0  0  0  0
    1.6488    1.1056    0.0000 C   0  0  0  0  0  0  0  0  0  0  0  0
  1  2  1  0  0  0  0
  1  8  1  0  0  0  0
  2  3  2  0  0  0  0
  2  4  1  0  0  0  0
  4  5  1  0  0  0  0
  5  6  2  0  0  0  0
  5  7  1  0  0  0  0
  7  8  1  0  0  0  0
  7 10  1  0  0  0  0
  7 11  1  0  0  0  0
  8  9  2  0  0  0  0
 11 12  2  0  0  0  0
 11 16  1  0  0  0  0
 12 13  1  0  0  0  0
 13 14  2  0  0  0  0
 14 15  1  0  0  0  0
 14 17  1  0  0  0  0
 15 16  2  0  0  0  0
 17 18  1  0  0  0  0
 18 19  2  0  0  0  0
 18 23  1  0  0  0  0
 19 20  1  0  0  0  0
 20 21  2  0  0  0  0
 21 22  1  0  0  0  0
 22 23  2  0  0  0  0
M  END
> <DRUGBANK_ID>
DB03368

> <DRUG_GROUPS>
experimental

> <GENERIC_NAME>
5-Methyl-5-(4-Phenoxy-Phenyl)-Pyrimidine-2,4,6-Trione

> <CHEMICAL_FORMULA>
C17H14N2O4

> <MOLECULAR_WEIGHT>
310.3041

> <EXACT_MASS>
310.095356946

> <IUPAC_NAME>
5-methyl-5-(4-phenoxyphenyl)-1,3-diazinane-2,4,6-trione

> <IUPAC_TRADITIONAL_NAME>
5-methyl-5-(4-phenoxyphenyl)-1,3-diazinane-2,4,6-trione

> <INCHI_IDENTIFIER>
InChI=1S/C17H14N2O4/c1-17(14(20)18-16(22)19-15(17)21)11-7-9-13(10-8-11)23-12-5-3-2-4-6-12/h2-10H,1H3,(H2,18,19,20,21,22)

> <INCHI_KEY>
InChIKey=RTBMLCLTYAPKIF-UHFFFAOYSA-N

> <SMILES>
CC1(C(=O)NC(=O)NC1=O)C1=CC=C(OC2=CC=CC=C2)C=C1

> <JCHEM_ACCEPTOR_COUNT>
3

> <JCHEM_DONOR_COUNT>
2

> <JCHEM_ACIDIC_PKA>
8.14

> <JCHEM_BASIC_PKA>
-8.7

> <JCHEM_PHYSIOLOGICAL_CHARGE>
0

> <ALOGPS_LOGP>
2.75

> <JCHEM_LOGP>
2.46

> <ALOGPS_LOGS>
-4.3

> <JCHEM_POLARIZABILITY>
30.41

> <JCHEM_POLAR_SURFACE_AREA>
84.5

> <JCHEM_REFRACTIVITY>
81.39

> <JCHEM_ROTATABLE_BOND_COUNT>
3

> <ALOGPS_SOLUBILITY>
1.39e-02 g/l __ 

$$$$
