
  Mrv0541 02231217132D          

  2  1  0  0  0  0            999 V2000
     0.825     0.000     0.000 C   0  0  0  0  0  0  0  0  0  0  0  0
     0.000     0.000     0.000 O   0  0  0  0  0  0  0  0  0  0  0  0
  1  2  2  0  0  0  0
M  END
> <DRUGBANK_ID>
DB03843

> <DRUG_GROUPS>
experimental

> <GENERIC_NAME>
Formaldehyde

> <SYNONYMS>


> <BRANDS>


> <CHEMICAL_FORMULA>
CH2O

> <MOLECULAR_WEIGHT>
30.026

> <EXACT_MASS>
30.010564686

> <IUPAC_NAME>
formaldehyde

> <IUPAC_TRADITIONAL_NAME>
formaldehyde

> <INCHI_IDENTIFIER>
InChI=1S/CH2O/c1-2/h1H2

> <INCHI_KEY>
InChIKey=WSFSSNUMVMOOMR-UHFFFAOYSA-N

> <SMILES>
C=O

> <JCHEM_ACCEPTOR_COUNT>
1

> <JCHEM_DONOR_COUNT>
0

> <JCHEM_BASIC_PKA>
-6.5

> <JCHEM_PHYSIOLOGICAL_CHARGE>
0

> <ALOGPS_LOGP>
-0.68

> <JCHEM_LOGP>
-0.47

> <ALOGPS_LOGS>
0.82

> <JCHEM_POLARIZABILITY>
2.58

> <JCHEM_POLAR_SURFACE_AREA>
17.07

> <JCHEM_REFRACTIVITY>
6.31

> <JCHEM_ROTATABLE_BOND_COUNT>
0

> <ALOGPS_SOLUBILITY>
1.98e+02 g/l __ 

$$$$
