
  Mrv0541 02231217182D          

 12 11  0  0  1  0            999 V2000
    4.6184    2.6664    0.0000 N   0  0  0  0  0  0  0  0  0  0  0  0
    4.6184    1.8414    0.0000 C   0  0  1  0  0  0  0  0  0  0  0  0
    3.9039    1.4289    0.0000 C   0  0  0  0  0  0  0  0  0  0  0  0
    3.1895    1.8414    0.0000 C   0  0  0  0  0  0  0  0  0  0  0  0
    2.4750    1.4289    0.0000 C   0  0  0  0  0  0  0  0  0  0  0  0
    1.7605    1.8414    0.0000 N   0  0  0  0  0  0  0  0  0  0  0  0
    1.0461    1.4289    0.0000 C   0  0  0  0  0  0  0  0  0  0  0  0
    1.0461    0.6039    0.0000 N   0  0  0  0  0  0  0  0  0  0  0  0
    0.3316    1.8414    0.0000 S   0  0  0  0  0  0  0  0  0  0  0  0
    5.3329    1.4289    0.0000 C   0  0  0  0  0  0  0  0  0  0  0  0
    6.0474    1.8414    0.0000 O   0  0  0  0  0  0  0  0  0  0  0  0
    5.3329    0.6039    0.0000 O   0  0  0  0  0  0  0  0  0  0  0  0
  2  1  1  6  0  0  0
  2  3  1  0  0  0  0
  3  4  1  0  0  0  0
  4  5  1  0  0  0  0
  5  6  1  0  0  0  0
  6  7  2  0  0  0  0
  7  8  1  0  0  0  0
  7  9  1  0  0  0  0
  2 10  1  0  0  0  0
 10 11  1  0  0  0  0
 10 12  2  0  0  0  0
M  END
> <DRUGBANK_ID>
DB03953

> <DRUG_GROUPS>
experimental

> <GENERIC_NAME>
L-Thiocitrulline

> <CHEMICAL_FORMULA>
C6H13N3O2S

> <MOLECULAR_WEIGHT>
191.251

> <EXACT_MASS>
191.072847365

> <IUPAC_NAME>
(2S)-2-amino-5-[(E)-(C-sulfanylcarbonimidoyl)amino]pentanoic acid

> <IUPAC_TRADITIONAL_NAME>
L-thiocitrulline

> <INCHI_IDENTIFIER>
InChI=1S/C6H13N3O2S/c7-4(5(10)11)2-1-3-9-6(8)12/h4H,1-3,7H2,(H,10,11)(H3,8,9,12)/t4-/m0/s1

> <INCHI_KEY>
InChIKey=BKGWACHYAMTLAF-BYPYZUCNSA-N

> <SMILES>
N[C@@H](CCC\N=C(/N)S)C(O)=O

> <JCHEM_ACCEPTOR_COUNT>
5

> <JCHEM_DONOR_COUNT>
4

> <JCHEM_ACIDIC_PKA>
1.59

> <JCHEM_BASIC_PKA>
15

> <JCHEM_PHYSIOLOGICAL_CHARGE>
0

> <ALOGPS_LOGP>
-2.1

> <JCHEM_LOGP>
-4.5

> <ALOGPS_LOGS>
-2

> <JCHEM_POLARIZABILITY>
19.68

> <JCHEM_POLAR_SURFACE_AREA>
101.7

> <JCHEM_REFRACTIVITY>
48.1

> <JCHEM_ROTATABLE_BOND_COUNT>
5

> <ALOGPS_SOLUBILITY>
2.00e+00 g/l __ 

$$$$
