
  Mrv0541 02231216472D          

 36 40  0  0  0  0            999 V2000
    2.7845    0.6979    0.0000 N   0  0  0  0  0  0  0  0  0  0  0  0
    2.0701    1.1104    0.0000 C   0  0  0  0  0  0  0  0  0  0  0  0
    1.3556    0.6979    0.0000 N   0  0  0  0  0  0  0  0  0  0  0  0
    0.6411    1.1104    0.0000 C   0  0  0  0  0  0  0  0  0  0  0  0
   -0.1435    0.8555    0.0000 N   0  0  0  0  0  0  0  0  0  0  0  0
   -0.6284    1.5229    0.0000 N   0  0  0  0  0  0  0  0  0  0  0  0
   -0.1435    2.1904    0.0000 N   0  0  0  0  0  0  0  0  0  0  0  0
    0.6411    1.9354    0.0000 C   0  0  0  0  0  0  0  0  0  0  0  0
    1.3556    2.3479    0.0000 C   0  0  0  0  0  0  0  0  0  0  0  0
    1.3556    3.1729    0.0000 O   0  0  0  0  0  0  0  0  0  0  0  0
    2.0701    1.9354    0.0000 N   0  0  0  0  0  0  0  0  0  0  0  0
   -1.4534    1.5229    0.0000 C   0  0  0  0  0  0  0  0  0  0  0  0
   -1.8659    0.8085    0.0000 C   0  0  0  0  0  0  0  0  0  0  0  0
   -2.6909    0.8085    0.0000 C   0  0  0  0  0  0  0  0  0  0  0  0
   -3.1034    1.5229    0.0000 C   0  0  0  0  0  0  0  0  0  0  0  0
   -2.6909    2.2374    0.0000 C   0  0  0  0  0  0  0  0  0  0  0  0
   -1.8659    2.2374    0.0000 C   0  0  0  0  0  0  0  0  0  0  0  0
   -3.1034    2.9519    0.0000 C   0  0  0  0  0  0  0  0  0  0  0  0
   -2.6909    3.6664    0.0000 O   0  0  0  0  0  0  0  0  0  0  0  0
   -3.9284    2.9519    0.0000 N   0  0  0  0  0  0  0  0  0  0  0  0
   -4.3409    3.6664    0.0000 C   0  0  0  0  0  0  0  0  0  0  0  0
   -5.1659    3.6664    0.0000 C   0  0  0  0  0  0  0  0  0  0  0  0
   -5.5784    2.9519    0.0000 C   0  0  0  0  0  0  0  0  0  0  0  0
   -6.4034    2.9519    0.0000 C   0  0  0  0  0  0  0  0  0  0  0  0
   -6.8159    3.6664    0.0000 C   0  0  0  0  0  0  0  0  0  0  0  0
   -6.4034    4.3808    0.0000 C   0  0  0  0  0  0  0  0  0  0  0  0
   -5.5784    4.3808    0.0000 C   0  0  0  0  0  0  0  0  0  0  0  0
   -5.1659    5.0953    0.0000 S   0  0  0  0  0  0  0  0  0  0  0  0
   -4.3409    5.0953    0.0000 C   0  0  0  0  0  0  0  0  0  0  0  0
   -3.9284    4.3808    0.0000 C   0  0  0  0  0  0  0  0  0  0  0  0
   -3.1034    4.3808    0.0000 C   0  0  0  0  0  0  0  0  0  0  0  0
   -2.6909    5.0953    0.0000 C   0  0  0  0  0  0  0  0  0  0  0  0
   -3.1034    5.8098    0.0000 C   0  0  0  0  0  0  0  0  0  0  0  0
   -3.9284    5.8098    0.0000 C   0  0  0  0  0  0  0  0  0  0  0  0
   -4.3409    6.5242    0.0000 C   0  0  0  0  0  0  0  0  0  0  0  0
   -5.1659    6.5242    0.0000 O   0  0  0  0  0  0  0  0  0  0  0  0
  1  2  1  0  0  0  0
  2  3  2  0  0  0  0
  3  4  1  0  0  0  0
  4  5  2  0  0  0  0
  5  6  1  0  0  0  0
  6  7  1  0  0  0  0
  7  8  2  0  0  0  0
  4  8  1  0  0  0  0
  8  9  1  0  0  0  0
  9 10  1  0  0  0  0
  9 11  2  0  0  0  0
  2 11  1  0  0  0  0
  6 12  1  0  0  0  0
 12 13  2  0  0  0  0
 13 14  1  0  0  0  0
 14 15  2  0  0  0  0
 15 16  1  0  0  0  0
 16 17  2  0  0  0  0
 12 17  1  0  0  0  0
 16 18  1  0  0  0  0
 18 19  2  0  0  0  0
 18 20  1  0  0  0  0
 20 21  1  0  0  0  0
 21 22  1  0  0  0  0
 22 23  2  0  0  0  0
 23 24  1  0  0  0  0
 24 25  2  0  0  0  0
 25 26  1  0  0  0  0
 26 27  2  0  0  0  0
 22 27  1  0  0  0  0
 27 28  1  0  0  0  0
 28 29  1  0  0  0  0
 29 30  2  0  0  0  0
 30 31  1  0  0  0  0
 31 32  2  0  0  0  0
 32 33  1  0  0  0  0
 33 34  2  0  0  0  0
 29 34  1  0  0  0  0
 34 35  1  0  0  0  0
 35 36  1  0  0  0  0
M  END
> <DRUGBANK_ID>
DB03231

> <DRUG_GROUPS>
experimental

> <GENERIC_NAME>
3-(5-Amino-7-Hydroxy-[1,2,3]Triazolo[4,5-D]Pyrimidin-2-Yl)-N-[2-(2-(Hydroxymethyl-Phenylsulfanyl)-Benzyl]-Benzamide

> <CHEMICAL_FORMULA>
C25H21N7O3S

> <MOLECULAR_WEIGHT>
499.544

> <EXACT_MASS>
499.142658263

> <IUPAC_NAME>
3-{5-amino-7-hydroxy-2H-[1,2,3]triazolo[4,5-d]pyrimidin-2-yl}-N-[(2-{[2-(hydroxymethyl)phenyl]sulfanyl}phenyl)methyl]benzamide

> <IUPAC_TRADITIONAL_NAME>
3-{5-amino-7-hydroxy-[1,2,3]triazolo[4,5-d]pyrimidin-2-yl}-N-[(2-{[2-(hydroxymethyl)phenyl]sulfanyl}phenyl)methyl]benzamide

> <INCHI_IDENTIFIER>
InChI=1S/C25H21N7O3S/c26-25-28-22-21(24(35)29-25)30-32(31-22)18-9-5-8-15(12-18)23(34)27-13-16-6-1-3-10-19(16)36-20-11-4-2-7-17(20)14-33/h1-12,33H,13-14H2,(H,27,34)(H3,26,28,29,31,35)

> <INCHI_KEY>
InChIKey=IXDQOBDHBWEZOH-UHFFFAOYSA-N

> <SMILES>
NC1=NC2=NN(N=C2C(O)=N1)C1=CC=CC(=C1)C(=O)NCC1=CC=CC=C1SC1=CC=CC=C1CO

> <JCHEM_ACCEPTOR_COUNT>
8

> <JCHEM_DONOR_COUNT>
4

> <JCHEM_ACIDIC_PKA>
10.59

> <JCHEM_BASIC_PKA>
-1

> <JCHEM_PHYSIOLOGICAL_CHARGE>
0

> <ALOGPS_LOGP>
3.49

> <JCHEM_LOGP>
3.99

> <ALOGPS_LOGS>
-4.8

> <JCHEM_POLARIZABILITY>
51.16

> <JCHEM_POLAR_SURFACE_AREA>
152.07

> <JCHEM_REFRACTIVITY>
152.64

> <JCHEM_ROTATABLE_BOND_COUNT>
7

> <ALOGPS_SOLUBILITY>
8.51e-03 g/l __ 

$$$$
