
  Mrv0541 02231217112D          

 43 47  0  0  1  0            999 V2000
  -12.6566    0.4585    0.0000 N   0  0  0  0  0  0  0  0  0  0  0  0
  -11.8361    0.3723    0.0000 C   0  0  0  0  0  0  0  0  0  0  0  0
  -11.3512    1.0397    0.0000 C   0  0  0  0  0  0  0  0  0  0  0  0
  -11.6868    1.7934    0.0000 C   0  0  0  0  0  0  0  0  0  0  0  0
  -11.2018    2.4608    0.0000 C   0  0  0  0  0  0  0  0  0  0  0  0
  -10.3814    2.3746    0.0000 C   0  0  0  0  0  0  0  0  0  0  0  0
  -10.0458    1.6209    0.0000 N   0  3  0  0  0  0  0  0  0  0  0  0
  -10.5307    0.9535    0.0000 C   0  0  0  0  0  0  0  0  0  0  0  0
   -9.2253    1.5347    0.0000 C   0  0  2  0  0  0  0  0  0  0  0  0
   -8.6733    2.1478    0.0000 O   0  0  0  0  0  0  0  0  0  0  0  0
   -7.9196    1.8122    0.0000 C   0  0  1  0  0  0  0  0  0  0  0  0
   -7.2052    2.2247    0.0000 C   0  0  0  0  0  0  0  0  0  0  0  0
   -6.4907    1.8122    0.0000 O   0  0  0  0  0  0  0  0  0  0  0  0
   -5.7762    2.2247    0.0000 P   0  0  2  0  0  0  0  0  0  0  0  0
   -5.3637    1.5103    0.0000 O   0  5  0  0  0  0  0  0  0  0  0  0
   -6.1887    2.9392    0.0000 O   0  0  0  0  0  0  0  0  0  0  0  0
   -5.0617    2.6372    0.0000 O   0  0  0  0  0  0  0  0  0  0  0  0
   -4.3473    2.2247    0.0000 P   0  0  1  0  0  0  0  0  0  0  0  0
   -4.7598    1.5103    0.0000 O   0  0  0  0  0  0  0  0  0  0  0  0
   -3.9348    2.9392    0.0000 O   0  0  0  0  0  0  0  0  0  0  0  0
   -3.6328    1.8122    0.0000 O   0  0  0  0  0  0  0  0  0  0  0  0
   -2.9183    2.2247    0.0000 C   0  0  0  0  0  0  0  0  0  0  0  0
   -2.2039    1.8122    0.0000 C   0  0  2  0  0  0  0  0  0  0  0  0
   -1.4502    2.1478    0.0000 O   0  0  0  0  0  0  0  0  0  0  0  0
   -0.8981    1.5347    0.0000 C   0  0  2  0  0  0  0  0  0  0  0  0
   -1.3106    0.8202    0.0000 C   0  0  2  0  0  0  0  0  0  0  0  0
   -0.9751    0.0665    0.0000 O   0  0  0  0  0  0  0  0  0  0  0  0
   -2.1176    0.9917    0.0000 C   0  0  1  0  0  0  0  0  0  0  0  0
   -2.7307    0.4397    0.0000 O   0  0  0  0  0  0  0  0  0  0  0  0
   -0.0777    1.6209    0.0000 N   0  0  0  0  0  0  0  0  0  0  0  0
    0.4744    1.0078    0.0000 C   0  0  0  0  0  0  0  0  0  0  0  0
    1.2280    1.3434    0.0000 N   0  0  0  0  0  0  0  0  0  0  0  0
    1.1418    2.1639    0.0000 C   0  0  0  0  0  0  0  0  0  0  0  0
    0.3348    2.3354    0.0000 C   0  0  0  0  0  0  0  0  0  0  0  0
    0.0799    3.1200    0.0000 N   0  0  0  0  0  0  0  0  0  0  0  0
    0.6319    3.7331    0.0000 C   0  0  0  0  0  0  0  0  0  0  0  0
    1.4389    3.5616    0.0000 N   0  0  0  0  0  0  0  0  0  0  0  0
    1.6938    2.7770    0.0000 C   0  0  0  0  0  0  0  0  0  0  0  0
    2.5008    2.6054    0.0000 N   0  0  0  0  0  0  0  0  0  0  0  0
   -8.0059    0.9917    0.0000 C   0  0  2  0  0  0  0  0  0  0  0  0
   -7.3928    0.4397    0.0000 O   0  0  0  0  0  0  0  0  0  0  0  0
   -8.8128    0.8202    0.0000 C   0  0  1  0  0  0  0  0  0  0  0  0
   -9.1484    0.0665    0.0000 O   0  0  0  0  0  0  0  0  0  0  0  0
  1  2  1  0  0  0  0
  2  3  1  0  0  0  0
  3  4  2  0  0  0  0
  4  5  1  0  0  0  0
  5  6  2  0  0  0  0
  6  7  1  0  0  0  0
  7  8  2  0  0  0  0
  3  8  1  0  0  0  0
  9  7  1  6  0  0  0
  9 10  1  0  0  0  0
 10 11  1  0  0  0  0
 11 12  1  1  0  0  0
 12 13  1  0  0  0  0
 14 13  1  6  0  0  0
 14 15  1  1  0  0  0
 14 16  2  0  0  0  0
 14 17  1  0  0  0  0
 18 17  1  1  0  0  0
 18 19  1  6  0  0  0
 18 20  2  0  0  0  0
 18 21  1  0  0  0  0
 21 22  1  0  0  0  0
 23 22  1  6  0  0  0
 23 24  1  0  0  0  0
 24 25  1  0  0  0  0
 25 26  1  0  0  0  0
 26 27  1  6  0  0  0
 26 28  1  0  0  0  0
 23 28  1  0  0  0  0
 28 29  1  1  0  0  0
 25 30  1  1  0  0  0
 30 31  1  0  0  0  0
 31 32  2  0  0  0  0
 32 33  1  0  0  0  0
 33 34  2  0  0  0  0
 30 34  1  0  0  0  0
 34 35  1  0  0  0  0
 35 36  2  0  0  0  0
 36 37  1  0  0  0  0
 37 38  2  0  0  0  0
 33 38  1  0  0  0  0
 38 39  1  0  0  0  0
 11 40  1  0  0  0  0
 40 41  1  6  0  0  0
 40 42  1  0  0  0  0
  9 42  1  0  0  0  0
 42 43  1  1  0  0  0
M  END
> <DRUGBANK_ID>
DB03797

> <DRUG_GROUPS>
experimental

> <GENERIC_NAME>
3-Aminomethyl-Pyridinium-Adenine-Dinucleotide

> <CHEMICAL_FORMULA>
C21H29N7O13P2

> <MOLECULAR_WEIGHT>
649.4416

> <EXACT_MASS>
649.129857073

> <IUPAC_NAME>
1-[(2R,3R,4R,5S)-5-({[(S)-({[(2S,3R,4R,5R)-5-(6-amino-9H-purin-9-yl)-3,4-dihydroxyoxolan-2-yl]methoxy}(hydroxy)phosphoryl phosphonato)]oxy}methyl)-3,4-dihydroxyoxolan-2-yl]-3-(aminomethyl)-1$l^{5}-pyridin-1-ylium

> <IUPAC_TRADITIONAL_NAME>
3-(aminomethyl)-1-[(2R,3R,4R,5S)-5-({[(S)-([(2S,3R,4R,5R)-5-(6-aminopurin-9-yl)-3,4-dihydroxyoxolan-2-yl]methoxy(hydroxy)phosphoryl phosphonato)]oxy}methyl)-3,4-dihydroxyoxolan-2-yl]-1$l^{5}-pyridin-1-ylium

> <INCHI_IDENTIFIER>
InChI=1S/C21H29N7O13P2/c22-4-10-2-1-3-27(5-10)20-16(31)14(29)11(39-20)6-37-42(33,34)41-43(35,36)38-7-12-15(30)17(32)21(40-12)28-9-26-13-18(23)24-8-25-19(13)28/h1-3,5,8-9,11-12,14-17,20-21,29-32H,4,6-7,22H2,(H3-,23,24,25,33,34,35,36)/t11-,12-,14-,15-,16+,17+,20+,21+/m0/s1

> <INCHI_KEY>
InChIKey=HMCRLFVYYFBZEZ-OQSIOIOUSA-N

> <SMILES>
NCC1=CC=C[N+](=C1)[C@@H]1O[C@@H](CO[P@]([O-])(=O)O[P@@](O)(=O)OC[C@@H]2O[C@H]([C@H](O)[C@H]2O)N2C=NC3=C2N=CN=C3N)[C@H](O)[C@H]1O

> <JCHEM_ACCEPTOR_COUNT>
15

> <JCHEM_DONOR_COUNT>
7

> <JCHEM_ACIDIC_PKA>
1.86

> <JCHEM_BASIC_PKA>
8.49

> <JCHEM_PHYSIOLOGICAL_CHARGE>
0

> <ALOGPS_LOGP>
-1.7

> <JCHEM_LOGP>
-14

> <ALOGPS_LOGS>
-2.5

> <JCHEM_POLARIZABILITY>
57.39

> <JCHEM_POLAR_SURFACE_AREA>
304.02

> <JCHEM_REFRACTIVITY>
140.27

> <JCHEM_ROTATABLE_BOND_COUNT>
11

> <ALOGPS_SOLUBILITY>
2.21e+00 g/l __ 

$$$$
