
  Mrv0541 02231216592D          

 44 47  0  0  1  0            999 V2000
   -0.7145   -0.4125    0.0000 C   0  0  0  0  0  0  0  0  0  0  0  0
   -0.7145   -1.2375    0.0000 C   0  0  1  0  0  0  0  0  0  0  0  0
   -1.4289   -1.6500    0.0000 O   0  0  0  0  0  0  0  0  0  0  0  0
   -1.4289   -2.4750    0.0000 C   0  0  1  0  0  0  0  0  0  0  0  0
   -2.1434   -2.8875    0.0000 O   0  0  0  0  0  0  0  0  0  0  0  0
   -2.8579   -2.4750    0.0000 C   0  0  2  0  0  0  0  0  0  0  0  0
   -2.8579   -1.6500    0.0000 C   0  0  2  0  0  0  0  0  0  0  0  0
   -2.1434   -1.2375    0.0000 C   0  0  0  0  0  0  0  0  0  0  0  0
   -2.1434   -0.4125    0.0000 O   0  0  0  0  0  0  0  0  0  0  0  0
   -3.5724   -1.2375    0.0000 O   0  0  0  0  0  0  0  0  0  0  0  0
   -4.2868   -1.6500    0.0000 C   0  0  1  0  0  0  0  0  0  0  0  0
   -5.0013   -1.2375    0.0000 O   0  0  0  0  0  0  0  0  0  0  0  0
   -5.7158   -1.6500    0.0000 C   0  0  0  0  0  0  0  0  0  0  0  0
   -6.4302   -1.2375    0.0000 C   0  0  2  0  0  0  0  0  0  0  0  0
   -7.1447   -1.6500    0.0000 O   0  0  0  0  0  0  0  0  0  0  0  0
   -7.8592   -1.2375    0.0000 C   0  0  2  0  0  0  0  0  0  0  0  0
   -8.5737   -1.6500    0.0000 O   0  0  0  0  0  0  0  0  0  0  0  0
   -7.8592   -0.4125    0.0000 C   0  0  1  0  0  0  0  0  0  0  0  0
   -8.5737    0.0000    0.0000 O   0  0  0  0  0  0  0  0  0  0  0  0
   -7.1447    0.0000    0.0000 C   0  0  2  0  0  0  0  0  0  0  0  0
   -7.1447    0.8250    0.0000 O   0  0  0  0  0  0  0  0  0  0  0  0
   -6.4302   -0.4125    0.0000 C   0  0  1  0  0  0  0  0  0  0  0  0
   -5.7158    0.0000    0.0000 O   0  0  0  0  0  0  0  0  0  0  0  0
   -4.2868   -2.4750    0.0000 C   0  0  2  0  0  0  0  0  0  0  0  0
   -5.0013   -2.8875    0.0000 O   0  0  0  0  0  0  0  0  0  0  0  0
   -3.5724   -2.8875    0.0000 C   0  0  1  0  0  0  0  0  0  0  0  0
   -3.5724   -3.7125    0.0000 O   0  0  0  0  0  0  0  0  0  0  0  0
   -0.7145   -2.8875    0.0000 C   0  0  2  0  0  0  0  0  0  0  0  0
   -0.7145   -3.7125    0.0000 O   0  0  0  0  0  0  0  0  0  0  0  0
    0.0000   -2.4750    0.0000 C   0  0  1  0  0  0  0  0  0  0  0  0
    0.7145   -2.8875    0.0000 O   0  0  0  0  0  0  0  0  0  0  0  0
    0.0000   -1.6500    0.0000 C   0  0  1  0  0  0  0  0  0  0  0  0
    0.7145   -1.2375    0.0000 N   0  0  0  0  0  0  0  0  0  0  0  0
    0.7145   -0.4125    0.0000 C   0  0  2  0  0  0  0  0  0  0  0  0
    0.0000    0.0000    0.0000 C   0  0  0  0  0  0  0  0  0  0  0  0
    0.0000    0.8250    0.0000 C   0  0  0  0  0  0  0  0  0  0  0  0
   -0.7145    1.2375    0.0000 C   0  0  0  0  0  0  0  0  0  0  0  0
   -0.7145    2.0625    0.0000 O   0  0  0  0  0  0  0  0  0  0  0  0
    0.7145    1.2375    0.0000 C   0  0  1  0  0  0  0  0  0  0  0  0
    0.7145    2.0625    0.0000 O   0  0  0  0  0  0  0  0  0  0  0  0
    1.4289    0.8250    0.0000 C   0  0  2  0  0  0  0  0  0  0  0  0
    2.1434    1.2375    0.0000 O   0  0  0  0  0  0  0  0  0  0  0  0
    1.4289    0.0000    0.0000 C   0  0  2  0  0  0  0  0  0  0  0  0
    2.1434   -0.4125    0.0000 O   0  0  0  0  0  0  0  0  0  0  0  0
  2  1  1  6  0  0  0
  2  3  1  0  0  0  0
  3  4  1  0  0  0  0
  4  5  1  6  0  0  0
  6  5  1  1  0  0  0
  6  7  1  0  0  0  0
  7  8  1  1  0  0  0
  8  9  1  0  0  0  0
  7 10  1  0  0  0  0
 10 11  1  0  0  0  0
 11 12  1  6  0  0  0
 12 13  1  0  0  0  0
 14 13  1  6  0  0  0
 14 15  1  0  0  0  0
 15 16  1  0  0  0  0
 16 17  1  6  0  0  0
 16 18  1  0  0  0  0
 18 19  1  1  0  0  0
 18 20  1  0  0  0  0
 20 21  1  6  0  0  0
 20 22  1  0  0  0  0
 14 22  1  0  0  0  0
 22 23  1  1  0  0  0
 11 24  1  0  0  0  0
 24 25  1  1  0  0  0
 24 26  1  0  0  0  0
  6 26  1  0  0  0  0
 26 27  1  6  0  0  0
  4 28  1  0  0  0  0
 28 29  1  1  0  0  0
 28 30  1  0  0  0  0
 30 31  1  6  0  0  0
 30 32  1  0  0  0  0
  2 32  1  0  0  0  0
 32 33  1  6  0  0  0
 34 33  1  6  0  0  0
 34 35  1  0  0  0  0
 35 36  2  0  0  0  0
 36 37  1  0  0  0  0
 37 38  1  0  0  0  0
 36 39  1  0  0  0  0
 39 40  1  1  0  0  0
 39 41  1  0  0  0  0
 41 42  1  6  0  0  0
 41 43  1  0  0  0  0
 34 43  1  0  0  0  0
 43 44  1  6  0  0  0
M  END
> <DRUGBANK_ID>
DB03495

> <DRUG_GROUPS>
experimental

> <GENERIC_NAME>
4,6-Dideoxy-4-{[4,5,6-Trihydroxy-3-(Hydroxymethyl)Cyclohex-2-En-1-Yl]Amino}-Alpha-D-Lyxo-Hexopyranosyl-(1->4)-Alpha-D-Threo-Hexopyranosyl-(1->6)-Alpha-L-Threo-Hexopyranose

> <CHEMICAL_FORMULA>
C25H43NO18

> <MOLECULAR_WEIGHT>
645.6048

> <EXACT_MASS>
645.248013577

> <IUPAC_NAME>
(2S,3S,4R,5R,6S)-6-({[(2R,3R,4R,5S,6S)-5-{[(2S,3R,4S,5R,6R)-3,4-dihydroxy-6-methyl-5-{[(1R,4R,5S,6R)-4,5,6-trihydroxy-3-(hydroxymethyl)cyclohex-2-en-1-yl]amino}oxan-2-yl]oxy}-3,4-dihydroxy-6-(hydroxymethyl)oxan-2-yl]oxy}methyl)oxane-2,3,4,5-tetrol

> <IUPAC_TRADITIONAL_NAME>
(2S,3S,4R,5R,6S)-6-({[(2R,3R,4R,5S,6S)-5-{[(2S,3R,4S,5R,6R)-3,4-dihydroxy-6-methyl-5-{[(1R,4R,5S,6R)-4,5,6-trihydroxy-3-(hydroxymethyl)cyclohex-2-en-1-yl]amino}oxan-2-yl]oxy}-3,4-dihydroxy-6-(hydroxymethyl)oxan-2-yl]oxy}methyl)oxane-2,3,4,5-tetrol

> <INCHI_IDENTIFIER>
InChI=1S/C25H43NO18/c1-6-11(26-8-2-7(3-27)12(29)16(33)13(8)30)15(32)20(37)25(41-6)44-22-9(4-28)43-24(21(38)18(22)35)40-5-10-14(31)17(34)19(36)23(39)42-10/h2,6,8-39H,3-5H2,1H3/t6-,8-,9+,10+,11+,12-,13-,14+,15+,16+,17-,18-,19+,20-,21-,22-,23+,24-,25+/m1/s1

> <INCHI_KEY>
InChIKey=FZLCJZILHGFQLM-LOKMWSOPSA-N

> <SMILES>
C[C@H]1O[C@@H](O[C@@H]2[C@H](CO)O[C@@H](OC[C@@H]3O[C@H](O)[C@@H](O)[C@H](O)[C@H]3O)[C@H](O)[C@H]2O)[C@H](O)[C@@H](O)[C@H]1N[C@@H]1C=C(CO)[C@@H](O)[C@H](O)[C@@H]1O

> <JCHEM_ACCEPTOR_COUNT>
19

> <JCHEM_DONOR_COUNT>
14

> <JCHEM_ACIDIC_PKA>
11.23

> <JCHEM_BASIC_PKA>
7.03

> <JCHEM_PHYSIOLOGICAL_CHARGE>
1

> <ALOGPS_LOGP>
-2.7

> <JCHEM_LOGP>
-7.6

> <ALOGPS_LOGS>
-0.67

> <JCHEM_POLARIZABILITY>
62.41

> <JCHEM_POLAR_SURFACE_AREA>
321.17

> <JCHEM_REFRACTIVITY>
137.6

> <JCHEM_ROTATABLE_BOND_COUNT>
9

> <ALOGPS_SOLUBILITY>
1.38e+02 g/l __ 

$$$$
