
  Mrv0541 02231217052D          

 17 17  0  0  0  0            999 V2000
    1.4289   -3.3000    0.0000 O    0  0  0  0  0  0  0  0  0  0  0  0
    1.4289   -2.4750    0.0000 P    0  0  0  0  0  0  0  0  0  0  0  0
    2.2539   -2.4750    0.0000 O    0  0  0  0  0  0  0  0  0  0  0  0
    0.6039   -2.4750    0.0000 O    0  0  0  0  0  0  0  0  0  0  0  0
    1.4289   -1.6500    0.0000 C    0  0  0  0  0  0  0  0  0  0  0  0
    0.7145   -1.2375    0.0000 N    0  0  0  0  0  0  0  0  0  0  0  0
    0.7145   -0.4125    0.0000 C    0  0  0  0  0  0  0  0  0  0  0  0
    0.0000    0.0000    0.0000 C    0  0  0  0  0  0  0  0  0  0  0  0
    0.0000    0.8250    0.0000 C    0  0  0  0  0  0  0  0  0  0  0  0
    0.7145    1.2375    0.0000 C    0  0  0  0  0  0  0  0  0  0  0  0
    0.7145    2.0625    0.0000 Cl   0  0  0  0  0  0  0  0  0  0  0  0
    1.4289    0.8250    0.0000 C    0  0  0  0  0  0  0  0  0  0  0  0
    1.4289    0.0000    0.0000 N    0  0  0  0  0  0  0  0  0  0  0  0
    2.1434   -1.2375    0.0000 P    0  0  0  0  0  0  0  0  0  0  0  0
    2.8579   -0.8250    0.0000 O    0  0  0  0  0  0  0  0  0  0  0  0
    1.7309   -0.5230    0.0000 O    0  0  0  0  0  0  0  0  0  0  0  0
    2.5559   -1.9520    0.0000 O    0  0  0  0  0  0  0  0  0  0  0  0
  1  2  1  0  0  0  0
  2  3  1  0  0  0  0
  2  4  2  0  0  0  0
  2  5  1  0  0  0  0
  5  6  1  0  0  0  0
  6  7  1  0  0  0  0
  7  8  2  0  0  0  0
  8  9  1  0  0  0  0
  9 10  2  0  0  0  0
 10 11  1  0  0  0  0
 10 12  1  0  0  0  0
 12 13  2  0  0  0  0
  7 13  1  0  0  0  0
  5 14  1  0  0  0  0
 14 15  1  0  0  0  0
 14 16  1  0  0  0  0
 14 17  2  0  0  0  0
M  END
> <DRUGBANK_ID>
DB03649

> <DRUG_GROUPS>
experimental

> <GENERIC_NAME>
[{(5-Chloro-2-Pyridinyl)Amino} Methylene]-1,1-Bisphosphonate

> <CHEMICAL_FORMULA>
C6H9ClN2O6P2

> <MOLECULAR_WEIGHT>
302.546

> <EXACT_MASS>
301.962436761

> <IUPAC_NAME>
{[(5-chloropyridin-2-yl)amino](phosphono)methyl}phosphonic acid

> <IUPAC_TRADITIONAL_NAME>
[(5-chloropyridin-2-yl)amino](phosphono)methylphosphonic acid

> <INCHI_IDENTIFIER>
InChI=1S/C6H9ClN2O6P2/c7-4-1-2-5(8-3-4)9-6(16(10,11)12)17(13,14)15/h1-3,6H,(H,8,9)(H2,10,11,12)(H2,13,14,15)

> <INCHI_KEY>
InChIKey=BNMYZGAZFGNKTH-UHFFFAOYSA-N

> <SMILES>
OP(O)(=O)C(NC1=CC=C(Cl)C=N1)P(O)(O)=O

> <JCHEM_ACCEPTOR_COUNT>
8

> <JCHEM_DONOR_COUNT>
5

> <JCHEM_ACIDIC_PKA>
0.87

> <JCHEM_BASIC_PKA>
4.49

> <JCHEM_PHYSIOLOGICAL_CHARGE>
-2

> <ALOGPS_LOGP>
0.06

> <JCHEM_LOGP>
-2

> <ALOGPS_LOGS>
-1.7

> <JCHEM_POLARIZABILITY>
22.89

> <JCHEM_POLAR_SURFACE_AREA>
139.98

> <JCHEM_REFRACTIVITY>
60.67

> <JCHEM_ROTATABLE_BOND_COUNT>
4

> <ALOGPS_SOLUBILITY>
6.05e+00 g/l __ 

$$$$
