IPL
  Mrv0541 02231216442D          

 17 18  0  0  0  0            999 V2000
   -2.3251    0.1192    0.0000 N   0  0  0  0  0  0  0  0  0  0  0  0
   -1.7731    0.7323    0.0000 C   0  0  0  0  0  0  0  0  0  0  0  0
   -1.0194    0.3968    0.0000 C   0  0  0  0  0  0  0  0  0  0  0  0
   -0.5536   -1.0368    0.0000 C   0  0  0  0  0  0  0  0  0  0  0  0
   -0.8085   -1.8214    0.0000 C   0  0  0  0  0  0  0  0  0  0  0  0
   -1.6155   -1.9929    0.0000 C   0  0  0  0  0  0  0  0  0  0  0  0
   -2.1675   -1.3798    0.0000 C   0  0  0  0  0  0  0  0  0  0  0  0
   -1.9126   -0.5952    0.0000 C   0  0  0  0  0  0  0  0  0  0  0  0
   -1.1056   -0.4237    0.0000 C   0  0  0  0  0  0  0  0  0  0  0  0
    1.1240    0.8093    0.0000 C   0  0  0  0  0  0  0  0  0  0  0  0
    0.4095    0.3968    0.0000 C   0  0  0  0  0  0  0  0  0  0  0  0
   -0.3049    0.8093    0.0000 C   0  0  0  0  0  0  0  0  0  0  0  0
    2.5530    0.8093    0.0000 P   0  0  0  0  0  0  0  0  0  0  0  0
    3.2674    1.2218    0.0000 O   0  0  0  0  0  0  0  0  0  0  0  0
    2.9655    0.0948    0.0000 O   0  0  0  0  0  0  0  0  0  0  0  0
    2.1405    1.5238    0.0000 O   0  0  0  0  0  0  0  0  0  0  0  0
    1.8385    0.3968    0.0000 O   0  0  0  0  0  0  0  0  0  0  0  0
  1  2  1  0  0  0  0
  1  8  1  0  0  0  0
  2  3  2  0  0  0  0
  3  9  1  0  0  0  0
  3 12  1  0  0  0  0
  4  5  2  0  0  0  0
  4  9  1  0  0  0  0
  5  6  1  0  0  0  0
  6  7  2  0  0  0  0
  7  8  1  0  0  0  0
  8  9  2  0  0  0  0
 10 11  1  0  0  0  0
 10 17  1  0  0  0  0
 11 12  1  0  0  0  0
 13 14  2  0  0  0  0
 13 15  1  0  0  0  0
 13 16  1  0  0  0  0
 13 17  1  0  0  0  0
M  END
> <DRUGBANK_ID>
DB03171

> <DRUG_GROUPS>
experimental

> <GENERIC_NAME>
Indole-3-Propanol Phosphate

> <CHEMICAL_FORMULA>
C11H14NO4P

> <MOLECULAR_WEIGHT>
255.2069

> <EXACT_MASS>
255.066044453

> <IUPAC_NAME>
[3-(1H-indol-3-yl)propoxy]phosphonic acid

> <IUPAC_TRADITIONAL_NAME>
3-(1H-indol-3-yl)propoxyphosphonic acid

> <INCHI_IDENTIFIER>
InChI=1S/C11H14NO4P/c13-17(14,15)16-7-3-4-9-8-12-11-6-2-1-5-10(9)11/h1-2,5-6,8,12H,3-4,7H2,(H2,13,14,15)

> <INCHI_KEY>
InChIKey=NKEZSFZOUIIZFL-UHFFFAOYSA-N

> <SMILES>
OP(O)(=O)OCCCC1=CNC2=C1C=CC=C2

> <JCHEM_ACCEPTOR_COUNT>
3

> <JCHEM_DONOR_COUNT>
3

> <JCHEM_ACIDIC_PKA>
1.8

> <JCHEM_PHYSIOLOGICAL_CHARGE>
-2

> <ALOGPS_LOGP>
1.21

> <JCHEM_LOGP>
1.91

> <ALOGPS_LOGS>
-2.2

> <JCHEM_POLARIZABILITY>
24.68

> <JCHEM_POLAR_SURFACE_AREA>
82.55

> <JCHEM_REFRACTIVITY>
64.19

> <JCHEM_ROTATABLE_BOND_COUNT>
5

> <ALOGPS_SOLUBILITY>
1.59e+00 g/l __ 

$$$$
