
  Mrv0541 02231217112D          

 28 30  0  0  0  0            999 V2000
   -2.1434   -2.8875    0.0000 C   0  0  0  0  0  0  0  0  0  0  0  0
   -2.1434   -3.7125    0.0000 C   0  0  0  0  0  0  0  0  0  0  0  0
   -1.4289   -4.1250    0.0000 C   0  0  0  0  0  0  0  0  0  0  0  0
   -1.4289   -4.9500    0.0000 C   0  0  0  0  0  0  0  0  0  0  0  0
   -0.7145   -5.3625    0.0000 O   0  0  0  0  0  0  0  0  0  0  0  0
   -0.7145   -6.1875    0.0000 C   0  0  0  0  0  0  0  0  0  0  0  0
    0.0000   -6.6000    0.0000 C   0  0  0  0  0  0  0  0  0  0  0  0
    0.0000   -7.4250    0.0000 O   0  0  0  0  0  0  0  0  0  0  0  0
    0.7145   -6.1875    0.0000 O   0  0  0  0  0  0  0  0  0  0  0  0
   -2.1434   -5.3625    0.0000 C   0  0  0  0  0  0  0  0  0  0  0  0
   -2.8579   -4.9500    0.0000 C   0  0  0  0  0  0  0  0  0  0  0  0
   -3.5724   -5.3625    0.0000 C   0  0  0  0  0  0  0  0  0  0  0  0
   -2.8579   -4.1250    0.0000 C   0  0  0  0  0  0  0  0  0  0  0  0
   -3.5724   -3.7125    0.0000 C   0  0  0  0  0  0  0  0  0  0  0  0
   -4.2868   -4.1250    0.0000 C   0  0  0  0  0  0  0  0  0  0  0  0
   -4.2868   -4.9500    0.0000 C   0  0  0  0  0  0  0  0  0  0  0  0
   -5.0013   -5.3625    0.0000 C   0  0  0  0  0  0  0  0  0  0  0  0
   -5.7158   -4.9500    0.0000 C   0  0  0  0  0  0  0  0  0  0  0  0
   -6.4302   -5.3625    0.0000 O   0  0  0  0  0  0  0  0  0  0  0  0
   -5.7158   -4.1250    0.0000 C   0  0  0  0  0  0  0  0  0  0  0  0
   -6.4302   -3.7125    0.0000 C   0  0  0  0  0  0  0  0  0  0  0  0
   -7.1447   -4.1250    0.0000 C   0  0  0  0  0  0  0  0  0  0  0  0
   -7.1447   -4.9500    0.0000 C   0  0  0  0  0  0  0  0  0  0  0  0
   -7.8592   -5.3625    0.0000 C   0  0  0  0  0  0  0  0  0  0  0  0
   -8.5737   -4.9500    0.0000 C   0  0  0  0  0  0  0  0  0  0  0  0
   -8.5737   -4.1250    0.0000 C   0  0  0  0  0  0  0  0  0  0  0  0
   -7.8592   -3.7125    0.0000 C   0  0  0  0  0  0  0  0  0  0  0  0
   -5.0013   -3.7125    0.0000 C   0  0  0  0  0  0  0  0  0  0  0  0
  1  2  1  0  0  0  0
  2  3  2  0  0  0  0
  3  4  1  0  0  0  0
  4  5  1  0  0  0  0
  5  6  1  0  0  0  0
  6  7  1  0  0  0  0
  7  8  1  0  0  0  0
  7  9  2  0  0  0  0
  4 10  2  0  0  0  0
 10 11  1  0  0  0  0
 11 12  1  0  0  0  0
 11 13  2  0  0  0  0
  2 13  1  0  0  0  0
 13 14  1  0  0  0  0
 14 15  1  0  0  0  0
 15 16  2  0  0  0  0
 16 17  1  0  0  0  0
 17 18  2  0  0  0  0
 18 19  1  0  0  0  0
 18 20  1  0  0  0  0
 20 21  1  0  0  0  0
 21 22  1  0  0  0  0
 22 23  2  0  0  0  0
 23 24  1  0  0  0  0
 24 25  2  0  0  0  0
 25 26  1  0  0  0  0
 26 27  2  0  0  0  0
 22 27  1  0  0  0  0
 20 28  2  0  0  0  0
 15 28  1  0  0  0  0
M  END
> <DRUGBANK_ID>
DB03788

> <DRUG_GROUPS>
experimental

> <GENERIC_NAME>
GC-24

> <CHEMICAL_FORMULA>
C24H24O4

> <MOLECULAR_WEIGHT>
376.445

> <EXACT_MASS>
376.167459256

> <IUPAC_NAME>
2-{4-[(3-benzyl-4-hydroxyphenyl)methyl]-3,5-dimethylphenoxy}acetic acid

> <IUPAC_TRADITIONAL_NAME>
4-[(3-benzyl-4-hydroxyphenyl)methyl]-3,5-dimethylphenoxyacetic acid

> <INCHI_IDENTIFIER>
InChI=1S/C24H24O4/c1-16-10-21(28-15-24(26)27)11-17(2)22(16)14-19-8-9-23(25)20(13-19)12-18-6-4-3-5-7-18/h3-11,13,25H,12,14-15H2,1-2H3,(H,26,27)

> <INCHI_KEY>
InChIKey=JYHIGYLGYNCMGI-UHFFFAOYSA-N

> <SMILES>
CC1=CC(OCC(O)=O)=CC(C)=C1CC1=CC=C(O)C(CC2=CC=CC=C2)=C1

> <JCHEM_ACCEPTOR_COUNT>
4

> <JCHEM_DONOR_COUNT>
2

> <JCHEM_ACIDIC_PKA>
3.92

> <JCHEM_BASIC_PKA>
-4.9

> <JCHEM_PHYSIOLOGICAL_CHARGE>
-1

> <ALOGPS_LOGP>
5.21

> <JCHEM_LOGP>
6.2

> <ALOGPS_LOGS>
-6

> <JCHEM_POLARIZABILITY>
41.07

> <JCHEM_POLAR_SURFACE_AREA>
66.76

> <JCHEM_REFRACTIVITY>
110.14

> <JCHEM_ROTATABLE_BOND_COUNT>
7

> <ALOGPS_SOLUBILITY>
4.04e-04 g/l __ 

$$$$
