BIA
  Mrv0541 02231216522D          

 31 33  0  0  0  0            999 V2000
   -1.5550   -0.3325    0.0000 N   0  0  0  0  0  0  0  0  0  0  0  0
    3.4463    0.9050    0.0000 C   0  0  0  0  0  0  0  0  0  0  0  0
   -2.2695   -1.5700    0.0000 C   0  0  0  0  0  0  0  0  0  0  0  0
    4.8752   -0.7450    0.0000 O   0  0  0  0  0  0  0  0  0  0  0  0
    2.0174    0.9050    0.0000 C   0  0  0  0  0  0  0  0  0  0  0  0
    4.1608    0.4925    0.0000 C   0  0  0  0  0  0  0  0  0  0  0  0
    2.0174    1.7300    0.0000 O   0  0  0  0  0  0  0  0  0  0  0  0
    4.8752    0.9050    0.0000 O   0  0  0  0  0  0  0  0  0  0  0  0
   -2.9839   -1.9825    0.0000 C   0  0  0  0  0  0  0  0  0  0  0  0
    2.7318    0.4925    0.0000 C   0  0  0  0  0  0  0  0  0  0  0  0
   -0.1261   -0.3325    0.0000 C   0  0  0  0  0  0  0  0  0  0  0  0
    3.4463   -1.5700    0.0000 N   0  3  0  0  0  0  0  0  0  0  0  0
   -0.8405    0.9050    0.0000 C   0  0  0  0  0  0  0  0  0  0  0  0
    4.1608   -1.9825    0.0000 O   0  0  0  0  0  0  0  0  0  0  0  0
    2.7318   -1.9825    0.0000 O   0  5  0  0  0  0  0  0  0  0  0  0
    2.7318   -0.3325    0.0000 C   0  0  0  0  0  0  0  0  0  0  0  0
   -1.5550    0.4925    0.0000 C   0  0  0  0  0  0  0  0  0  0  0  0
    1.3029    0.4925    0.0000 C   0  0  0  0  0  0  0  0  0  0  0  0
   -0.1261    0.4925    0.0000 N   0  0  0  0  0  0  0  0  0  0  0  0
   -3.6984   -0.7450    0.0000 C   0  0  0  0  0  0  0  0  0  0  0  0
   -0.8405   -0.7450    0.0000 C   0  0  0  0  0  0  0  0  0  0  0  0
   -2.9839   -0.3325    0.0000 C   0  0  0  0  0  0  0  0  0  0  0  0
    0.5884    0.9050    0.0000 C   0  0  0  0  0  0  0  0  0  0  0  0
    3.4463   -0.7450    0.0000 C   0  0  0  0  0  0  0  0  0  0  0  0
   -2.2695   -0.7450    0.0000 C   0  0  0  0  0  0  0  0  0  0  0  0
    4.1608   -0.3325    0.0000 C   0  0  0  0  0  0  0  0  0  0  0  0
   -4.4129   -0.3325    0.0000 C   0  0  0  0  0  0  0  0  0  0  0  0
   -5.1274    0.0800    0.0000 F   0  0  0  0  0  0  0  0  0  0  0  0
   -4.0004    0.3819    0.0000 F   0  0  0  0  0  0  0  0  0  0  0  0
   -4.8254   -1.0470    0.0000 F   0  0  0  0  0  0  0  0  0  0  0  0
   -3.6984   -1.5700    0.0000 C   0  0  0  0  0  0  0  0  0  0  0  0
  1 17  1  0  0  0  0
  1 21  1  0  0  0  0
  1 25  1  0  0  0  0
  2  6  2  0  0  0  0
  2 10  1  0  0  0  0
  3  9  2  0  0  0  0
  3 25  1  0  0  0  0
  4 26  1  0  0  0  0
  5  7  2  0  0  0  0
  5 10  1  0  0  0  0
  5 18  1  0  0  0  0
  6  8  1  0  0  0  0
  6 26  1  0  0  0  0
  9 31  1  0  0  0  0
 10 16  2  0  0  0  0
 11 19  1  0  0  0  0
 11 21  1  0  0  0  0
 12 14  2  0  0  0  0
 12 15  1  0  0  0  0
 12 24  1  0  0  0  0
 13 17  1  0  0  0  0
 13 19  1  0  0  0  0
 16 24  1  0  0  0  0
 18 23  1  0  0  0  0
 19 23  1  0  0  0  0
 20 22  1  0  0  0  0
 20 27  1  0  0  0  0
 20 31  2  0  0  0  0
 22 25  2  0  0  0  0
 24 26  2  0  0  0  0
 27 28  1  0  0  0  0
 27 29  1  0  0  0  0
 27 30  1  0  0  0  0
M  END
> <DRUGBANK_ID>
DB03336

> <DRUG_GROUPS>
experimental

> <GENERIC_NAME>
BIA

> <CHEMICAL_FORMULA>
C20H20F3N3O5

> <MOLECULAR_WEIGHT>
439.3851

> <EXACT_MASS>
439.13550538

> <IUPAC_NAME>
1-(3,4-dihydroxy-5-nitrophenyl)-3-{4-[3-(trifluoromethyl)phenyl]piperazin-1-yl}propan-1-one

> <IUPAC_TRADITIONAL_NAME>
BIA

> <INCHI_IDENTIFIER>
InChI=1S/C20H20F3N3O5/c21-20(22,23)14-2-1-3-15(12-14)25-8-6-24(7-9-25)5-4-17(27)13-10-16(26(30)31)19(29)18(28)11-13/h1-3,10-12,28-29H,4-9H2

> <INCHI_KEY>
InChIKey=KVIVJQWOYSWCCZ-UHFFFAOYSA-N

> <SMILES>
OC1=CC(=CC(=C1O)[N+]([O-])=O)C(=O)CCN1CCN(CC1)C1=CC(=CC=C1)C(F)(F)F

> <JCHEM_ACCEPTOR_COUNT>
7

> <JCHEM_DONOR_COUNT>
2

> <JCHEM_ACIDIC_PKA>
4.92

> <JCHEM_BASIC_PKA>
7.04

> <JCHEM_PHYSIOLOGICAL_CHARGE>
0

> <ALOGPS_LOGP>
3.7

> <JCHEM_LOGP>
2.46

> <ALOGPS_LOGS>
-4

> <JCHEM_POLARIZABILITY>
41.6

> <JCHEM_POLAR_SURFACE_AREA>
109.83

> <JCHEM_REFRACTIVITY>
108.4

> <JCHEM_ROTATABLE_BOND_COUNT>
7

> <ALOGPS_SOLUBILITY>
4.34e-02 g/l __ 

$$$$
