
  Mrv0541 02231216512D          

 16 16  0  0  1  0            999 V2000
   -0.8146   -1.4901    0.0000 C   0  0  0  0  0  0  0  0  0  0  0  0
   -0.3297   -0.8227    0.0000 C   0  0  0  0  0  0  0  0  0  0  0  0
    0.3378   -1.3076    0.0000 C   0  0  0  0  0  0  0  0  0  0  0  0
   -0.9971   -0.3378    0.0000 C   0  0  0  0  0  0  0  0  0  0  0  0
    0.1553   -0.1553    0.0000 C   0  0  0  0  0  0  0  0  0  0  0  0
   -0.0997    0.6294    0.0000 C   0  0  0  0  0  0  0  0  0  0  0  0
   -0.8843    0.8843    0.0000 C   0  0  0  0  0  0  0  0  0  0  0  0
   -1.4974    0.3323    0.0000 C   0  0  1  0  0  0  0  0  0  0  0  0
   -1.3259   -0.4747    0.0000 N   0  3  0  0  0  0  0  0  0  0  0  0
   -2.2820    0.5872    0.0000 C   0  0  0  0  0  0  0  0  0  0  0  0
   -2.8951    0.0352    0.0000 O   0  5  0  0  0  0  0  0  0  0  0  0
   -2.4535    1.3942    0.0000 O   0  0  0  0  0  0  0  0  0  0  0  0
    0.5678    1.1143    0.0000 C   0  0  0  0  0  0  0  0  0  0  0  0
    0.5678    1.9393    0.0000 O   0  5  0  0  0  0  0  0  0  0  0  0
    1.2352    0.6294    0.0000 N   0  0  0  0  0  0  0  0  0  0  0  0
    0.9803   -0.1553    0.0000 O   0  0  0  0  0  0  0  0  0  0  0  0
  1  2  1  0  0  0  0
  2  3  1  0  0  0  0
  2  4  1  0  0  0  0
  2  5  1  0  0  0  0
  5  6  2  0  0  0  0
  6  7  1  0  0  0  0
  7  8  1  0  0  0  0
  8  9  1  1  0  0  0
  8 10  1  0  0  0  0
 10 11  1  0  0  0  0
 10 12  2  0  0  0  0
  6 13  1  0  0  0  0
 13 14  1  0  0  0  0
 13 15  2  0  0  0  0
 15 16  1  0  0  0  0
  5 16  1  0  0  0  0
M  END
> <DRUGBANK_ID>
DB03319

> <DRUG_GROUPS>
experimental

> <GENERIC_NAME>
(S)-ATPA

> <SYNONYMS>


> <CHEMICAL_FORMULA>
C10H15N2O4

> <MOLECULAR_WEIGHT>
227.2371

> <EXACT_MASS>
227.103181978

> <IUPAC_NAME>
(2R)-2-azaniumyl-3-(5-tert-butyl-3-oxido-1,2-oxazol-4-yl)propanoate

> <IUPAC_TRADITIONAL_NAME>
(S)-atpa

> <INCHI_IDENTIFIER>
InChI=1S/C10H16N2O4/c1-10(2,3)7-5(8(13)12-16-7)4-6(11)9(14)15/h6H,4,11H2,1-3H3,(H,12,13)(H,14,15)/p-1/t6-/m1/s1

> <INCHI_KEY>
InChIKey=PIXJURSCCVBKRF-ZCFIWIBFSA-M

> <SMILES>
CC(C)(C)C1=C(C[C@@H]([NH3+])C([O-])=O)C([O-])=NO1

> <JCHEM_ACCEPTOR_COUNT>
4

> <JCHEM_DONOR_COUNT>
1

> <JCHEM_ACIDIC_PKA>
1.98

> <JCHEM_BASIC_PKA>
8.89

> <JCHEM_PHYSIOLOGICAL_CHARGE>
-1

> <ALOGPS_LOGP>
-0.32

> <JCHEM_LOGP>
-1.1

> <ALOGPS_LOGS>
-2.9

> <JCHEM_POLARIZABILITY>
22.29

> <JCHEM_POLAR_SURFACE_AREA>
116.86

> <JCHEM_REFRACTIVITY>
90.08

> <JCHEM_ROTATABLE_BOND_COUNT>
4

> <ALOGPS_SOLUBILITY>
4.19e-01 g/l __ 

$$$$
