
  Mrv0541 02231217012D          

 31 30  0  0  1  0            999 V2000
    8.4711    5.7158    0.0000 C   0  0  0  0  0  0  0  0  0  0  0  0
    9.1855    5.3033    0.0000 C   0  0  0  0  0  0  0  0  0  0  0  0
    9.9000    5.7158    0.0000 C   0  0  0  0  0  0  0  0  0  0  0  0
   10.6145    5.3033    0.0000 C   0  0  0  0  0  0  0  0  0  0  0  0
   11.3289    5.7158    0.0000 C   0  0  0  0  0  0  0  0  0  0  0  0
   12.0434    5.3033    0.0000 C   0  0  0  0  0  0  0  0  0  0  0  0
   12.7579    5.7158    0.0000 C   0  0  0  0  0  0  0  0  0  0  0  0
   13.4724    5.3033    0.0000 C   0  0  0  0  0  0  0  0  0  0  0  0
   14.1868    5.7158    0.0000 O   0  0  0  0  0  0  0  0  0  0  0  0
   14.9013    5.3033    0.0000 C   0  0  0  0  0  0  0  0  0  0  0  0
   15.6158    5.7158    0.0000 C   0  0  1  0  0  0  0  0  0  0  0  0
   15.6158    6.5408    0.0000 C   0  0  0  0  0  0  0  0  0  0  0  0
   16.3302    6.9533    0.0000 O   0  0  0  0  0  0  0  0  0  0  0  0
   16.3302    7.7783    0.0000 P   0  0  2  0  0  0  0  0  0  0  0  0
   15.5052    7.7783    0.0000 O   0  0  0  0  0  0  0  0  0  0  0  0
   17.1552    7.7783    0.0000 O   0  0  0  0  0  0  0  0  0  0  0  0
   16.3302    8.6033    0.0000 O   0  0  0  0  0  0  0  0  0  0  0  0
   17.0447    9.0158    0.0000 C   0  0  0  0  0  0  0  0  0  0  0  0
   17.0447    9.8408    0.0000 C   0  0  0  0  0  0  0  0  0  0  0  0
   17.7592   10.2533    0.0000 N   0  0  0  0  0  0  0  0  0  0  0  0
   16.3302    5.3033    0.0000 O   0  0  0  0  0  0  0  0  0  0  0  0
   17.0447    5.7158    0.0000 P   0  0  1  0  0  0  0  0  0  0  0  0
   17.4572    5.0013    0.0000 O   0  0  0  0  0  0  0  0  0  0  0  0
   16.6322    6.4302    0.0000 O   0  0  0  0  0  0  0  0  0  0  0  0
   17.7592    6.1283    0.0000 C   0  0  0  0  0  0  0  0  0  0  0  0
   18.4737    5.7158    0.0000 C   0  0  0  0  0  0  0  0  0  0  0  0
   19.1881    6.1283    0.0000 C   0  0  0  0  0  0  0  0  0  0  0  0
   19.9026    5.7158    0.0000 C   0  0  0  0  0  0  0  0  0  0  0  0
   20.6171    6.1283    0.0000 C   0  0  0  0  0  0  0  0  0  0  0  0
   21.3315    5.7158    0.0000 C   0  0  0  0  0  0  0  0  0  0  0  0
   22.0460    6.1283    0.0000 C   0  0  0  0  0  0  0  0  0  0  0  0
  1  2  1  0  0  0  0
  2  3  1  0  0  0  0
  3  4  1  0  0  0  0
  4  5  1  0  0  0  0
  5  6  1  0  0  0  0
  6  7  1  0  0  0  0
  7  8  1  0  0  0  0
  8  9  1  0  0  0  0
  9 10  1  0  0  0  0
 10 11  1  0  0  0  0
 11 12  1  0  0  0  0
 12 13  1  0  0  0  0
 14 13  1  1  0  0  0
 14 15  1  6  0  0  0
 14 16  2  0  0  0  0
 14 17  1  0  0  0  0
 17 18  1  0  0  0  0
 18 19  1  0  0  0  0
 19 20  1  0  0  0  0
 11 21  1  1  0  0  0
 22 21  1  1  0  0  0
 22 23  1  6  0  0  0
 22 24  2  0  0  0  0
 22 25  1  0  0  0  0
 25 26  1  0  0  0  0
 26 27  1  0  0  0  0
 27 28  1  0  0  0  0
 28 29  1  0  0  0  0
 29 30  1  0  0  0  0
 30 31  1  0  0  0  0
M  END
> <DRUGBANK_ID>
DB03565

> <DRUG_GROUPS>
experimental

> <GENERIC_NAME>
1-O-Octyl-2-Heptylphosphonyl-Sn-Glycero-3-Phosphoethanolamine

> <CHEMICAL_FORMULA>
C20H45NO8P2

> <MOLECULAR_WEIGHT>
489.5207

> <EXACT_MASS>
489.262040445

> <IUPAC_NAME>
{[(2S)-1-{[(2-aminoethoxy)(hydroxy)phosphoryl]oxy}-3-(octyloxy)propan-2-yl]oxy}(heptyl)phosphinic acid

> <IUPAC_TRADITIONAL_NAME>
[(2S)-1-{[2-aminoethoxy(hydroxy)phosphoryl]oxy}-3-(octyloxy)propan-2-yl]oxy(heptyl)phosphinic acid

> <INCHI_IDENTIFIER>
InChI=1S/C20H45NO8P2/c1-3-5-7-9-10-12-15-26-18-20(19-28-31(24,25)27-16-14-21)29-30(22,23)17-13-11-8-6-4-2/h20H,3-19,21H2,1-2H3,(H,22,23)(H,24,25)/t20-/m0/s1

> <INCHI_KEY>
InChIKey=RCCNUBYROFOKAU-FQEVSTJZSA-N

> <SMILES>
CCCCCCCCOC[C@@H](CO[P@](O)(=O)OCCN)O[P@@](O)(=O)CCCCCCC

> <JCHEM_ACCEPTOR_COUNT>
6

> <JCHEM_DONOR_COUNT>
3

> <JCHEM_ACIDIC_PKA>
0.75

> <JCHEM_BASIC_PKA>
10

> <JCHEM_PHYSIOLOGICAL_CHARGE>
-1

> <ALOGPS_LOGP>
2.7

> <JCHEM_LOGP>
2.34

> <ALOGPS_LOGS>
-2.8

> <JCHEM_POLARIZABILITY>
53.96

> <JCHEM_POLAR_SURFACE_AREA>
137.54

> <JCHEM_REFRACTIVITY>
122.05

> <JCHEM_ROTATABLE_BOND_COUNT>
23

> <ALOGPS_SOLUBILITY>
8.06e-01 g/l __ 

$$$$
