
  Mrv0541 02231217152D          

 20 22  0  0  1  0            999 V2000
   -1.1495   -5.0203    0.0000 C   0  0  0  0  0  0  0  0  0  0  0  0
   -0.4820   -4.5353    0.0000 S   0  0  0  0  0  0  0  0  0  0  0  0
   -0.5683   -3.7149    0.0000 C   0  0  0  0  0  0  0  0  0  0  0  0
    0.0992   -3.2299    0.0000 C   0  0  2  0  0  0  0  0  0  0  0  0
    0.0992   -2.4049    0.0000 N   0  3  0  0  0  0  0  0  0  0  0  0
    0.8838   -2.1500    0.0000 C   0  0  2  0  0  0  0  0  0  0  0  0
    1.3687   -2.8174    0.0000 C   0  0  2  0  0  0  0  0  0  0  0  0
    2.1937   -2.8174    0.0000 O   0  0  0  0  0  0  0  0  0  0  0  0
    0.8838   -3.4849    0.0000 C   0  0  1  0  0  0  0  0  0  0  0  0
    1.1387   -4.2695    0.0000 O   0  0  0  0  0  0  0  0  0  0  0  0
    1.1387   -1.3654    0.0000 C   0  0  0  0  0  0  0  0  0  0  0  0
    0.6538   -0.6979    0.0000 C   0  0  0  0  0  0  0  0  0  0  0  0
    1.1387   -0.0305    0.0000 N   0  0  0  0  0  0  0  0  0  0  0  0
    1.9233   -0.2854    0.0000 C   0  0  0  0  0  0  0  0  0  0  0  0
    2.6378    0.1271    0.0000 C   0  0  0  0  0  0  0  0  0  0  0  0
    2.6378    0.9521    0.0000 O   0  0  0  0  0  0  0  0  0  0  0  0
    3.3523   -0.2854    0.0000 N   0  0  0  0  0  0  0  0  0  0  0  0
    3.3523   -1.1104    0.0000 C   0  0  0  0  0  0  0  0  0  0  0  0
    2.6378   -1.5229    0.0000 N   0  0  0  0  0  0  0  0  0  0  0  0
    1.9233   -1.1104    0.0000 C   0  0  0  0  0  0  0  0  0  0  0  0
  1  2  1  0  0  0  0
  2  3  1  0  0  0  0
  4  3  1  6  0  0  0
  4  5  1  0  0  0  0
  5  6  1  0  0  0  0
  6  7  1  0  0  0  0
  7  8  1  6  0  0  0
  7  9  1  0  0  0  0
  4  9  1  0  0  0  0
  9 10  1  1  0  0  0
  6 11  1  1  0  0  0
 11 12  4  0  0  0  0
 12 13  4  0  0  0  0
 13 14  4  0  0  0  0
 14 15  1  0  0  0  0
 15 16  2  0  0  0  0
 15 17  1  0  0  0  0
 17 18  1  0  0  0  0
 18 19  2  0  0  0  0
 19 20  1  0  0  0  0
 11 20  4  0  0  0  0
 14 20  4  0  0  0  0
M  END
> <DRUGBANK_ID>
DB03881

> <DRUG_GROUPS>
experimental

> <GENERIC_NAME>
MT-Immucillin-H

> <SYNONYMS>


> <CHEMICAL_FORMULA>
C12H16N4O3S

> <MOLECULAR_WEIGHT>
296.345

> <EXACT_MASS>
296.094311088

> <IUPAC_NAME>
(2R,3S,4S,5S)-3,4-dihydroxy-2-[(methylsulfanyl)methyl]-5-{4-oxopyrrolo[3,2-d]pyrimidin-7-yl}pyrrolidin-1-ium

> <IUPAC_TRADITIONAL_NAME>
MT-immucillin-H

> <INCHI_IDENTIFIER>
InChI=1S/C12H15N4O3S/c1-20-3-6-10(17)11(18)8(16-6)5-2-13-9-7(5)14-4-15-12(9)19/h2,4,6,8,10-11,16-18H,3H2,1H3,(H,14,15,19)/p+1/t6-,8-,10-,11-/m0/s1

> <INCHI_KEY>
InChIKey=SFMVQWXGRIIFDH-SEZOGAINSA-O

> <SMILES>
CSC[C@@H]1[NH2+][C@H]([C@H](O)[C@H]1O)c1cnc2c1N=CNC2=O

> <JCHEM_ACCEPTOR_COUNT>
5

> <JCHEM_DONOR_COUNT>
4

> <JCHEM_ACIDIC_PKA>
7.86

> <JCHEM_BASIC_PKA>
8.56

> <JCHEM_PHYSIOLOGICAL_CHARGE>
1

> <ALOGPS_LOGP>
-1

> <JCHEM_LOGP>
-2.3

> <ALOGPS_LOGS>
-2.7

> <JCHEM_POLARIZABILITY>
30.17

> <JCHEM_POLAR_SURFACE_AREA>
115.71

> <JCHEM_REFRACTIVITY>
83.76

> <JCHEM_ROTATABLE_BOND_COUNT>
3

> <ALOGPS_SOLUBILITY>
6.22e-01 g/l __ 

$$$$
