
  Mrv0541 02231216542D          

 50 49  0  0  1  0            999 V2000
   18.3711   11.4315    0.0000 C   0  0  0  0  0  0  0  0  0  0  0  0
   19.0855   11.8440    0.0000 C   0  0  0  0  0  0  0  0  0  0  0  0
   19.0855   12.6690    0.0000 C   0  0  0  0  0  0  0  0  0  0  0  0
   19.8000   11.4315    0.0000 C   0  0  0  0  0  0  0  0  0  0  0  0
   20.5145   11.8440    0.0000 C   0  0  0  0  0  0  0  0  0  0  0  0
   21.2289   11.4315    0.0000 C   0  0  0  0  0  0  0  0  0  0  0  0
   21.9434   11.8440    0.0000 C   0  0  2  0  0  0  0  0  0  0  0  0
   21.9434   12.6690    0.0000 C   0  0  0  0  0  0  0  0  0  0  0  0
   22.6579   11.4315    0.0000 C   0  0  0  0  0  0  0  0  0  0  0  0
   23.3724   11.8440    0.0000 C   0  0  0  0  0  0  0  0  0  0  0  0
   24.0868   11.4315    0.0000 C   0  0  0  0  0  0  0  0  0  0  0  0
   24.8013   11.8440    0.0000 C   0  0  1  0  0  0  0  0  0  0  0  0
   24.8013   12.6690    0.0000 C   0  0  0  0  0  0  0  0  0  0  0  0
   25.5158   11.4315    0.0000 C   0  0  0  0  0  0  0  0  0  0  0  0
   26.2302   11.8440    0.0000 C   0  0  0  0  0  0  0  0  0  0  0  0
   26.9447   11.4315    0.0000 C   0  0  0  0  0  0  0  0  0  0  0  0
   27.6592   11.8440    0.0000 C   0  0  2  0  0  0  0  0  0  0  0  0
   27.6592   12.6690    0.0000 C   0  0  0  0  0  0  0  0  0  0  0  0
   28.3737   11.4315    0.0000 C   0  0  0  0  0  0  0  0  0  0  0  0
   29.0881   11.8440    0.0000 C   0  0  0  0  0  0  0  0  0  0  0  0
   29.8026   11.4315    0.0000 O   0  0  0  0  0  0  0  0  0  0  0  0
   30.5171   11.8440    0.0000 C   0  0  0  0  0  0  0  0  0  0  0  0
   31.2315   11.4315    0.0000 C   0  0  1  0  0  0  0  0  0  0  0  0
   31.2315   10.6065    0.0000 C   0  0  0  0  0  0  0  0  0  0  0  0
   31.9460   10.1940    0.0000 O   0  0  0  0  0  0  0  0  0  0  0  0
   31.9460    9.3690    0.0000 P   0  0  0  0  0  0  0  0  0  0  0  0
   31.1210    9.3690    0.0000 O   0  0  0  0  0  0  0  0  0  0  0  0
   32.7710    9.3690    0.0000 O   0  0  0  0  0  0  0  0  0  0  0  0
   31.9460    8.5440    0.0000 O   0  0  0  0  0  0  0  0  0  0  0  0
   31.9460   11.8440    0.0000 O   0  0  0  0  0  0  0  0  0  0  0  0
   32.6605   11.4315    0.0000 C   0  0  0  0  0  0  0  0  0  0  0  0
   33.3749   11.8440    0.0000 C   0  0  0  0  0  0  0  0  0  0  0  0
   34.0894   11.4315    0.0000 C   0  0  2  0  0  0  0  0  0  0  0  0
   34.0894   10.6065    0.0000 C   0  0  0  0  0  0  0  0  0  0  0  0
   34.8039   11.8440    0.0000 C   0  0  0  0  0  0  0  0  0  0  0  0
   35.5184   11.4315    0.0000 C   0  0  0  0  0  0  0  0  0  0  0  0
   36.2328   11.8440    0.0000 C   0  0  0  0  0  0  0  0  0  0  0  0
   36.9473   11.4315    0.0000 C   0  0  1  0  0  0  0  0  0  0  0  0
   36.9473   10.6065    0.0000 C   0  0  0  0  0  0  0  0  0  0  0  0
   37.6618   11.8440    0.0000 C   0  0  0  0  0  0  0  0  0  0  0  0
   38.3762   11.4315    0.0000 C   0  0  0  0  0  0  0  0  0  0  0  0
   39.0907   11.8440    0.0000 C   0  0  0  0  0  0  0  0  0  0  0  0
   39.8052   11.4315    0.0000 C   0  0  2  0  0  0  0  0  0  0  0  0
   39.8052   10.6065    0.0000 C   0  0  0  0  0  0  0  0  0  0  0  0
   40.5197   11.8440    0.0000 C   0  0  0  0  0  0  0  0  0  0  0  0
   41.2341   11.4315    0.0000 C   0  0  0  0  0  0  0  0  0  0  0  0
   41.9486   11.8440    0.0000 C   0  0  0  0  0  0  0  0  0  0  0  0
   42.6631   11.4315    0.0000 C   0  0  0  0  0  0  0  0  0  0  0  0
   43.3775   11.8440    0.0000 C   0  0  0  0  0  0  0  0  0  0  0  0
   42.6631   10.6065    0.0000 C   0  0  0  0  0  0  0  0  0  0  0  0
  1  2  1  0  0  0  0
  2  3  1  0  0  0  0
  2  4  1  0  0  0  0
  4  5  1  0  0  0  0
  5  6  1  0  0  0  0
  6  7  1  0  0  0  0
  7  8  1  6  0  0  0
  7  9  1  0  0  0  0
  9 10  1  0  0  0  0
 10 11  1  0  0  0  0
 11 12  1  0  0  0  0
 12 13  1  1  0  0  0
 12 14  1  0  0  0  0
 14 15  1  0  0  0  0
 15 16  1  0  0  0  0
 16 17  1  0  0  0  0
 17 18  1  6  0  0  0
 17 19  1  0  0  0  0
 19 20  1  0  0  0  0
 20 21  1  0  0  0  0
 21 22  1  0  0  0  0
 22 23  1  0  0  0  0
 23 24  1  0  0  0  0
 24 25  1  0  0  0  0
 25 26  1  0  0  0  0
 26 27  1  0  0  0  0
 26 28  1  0  0  0  0
 26 29  2  0  0  0  0
 23 30  1  6  0  0  0
 30 31  1  0  0  0  0
 31 32  1  0  0  0  0
 32 33  1  0  0  0  0
 33 34  1  1  0  0  0
 33 35  1  0  0  0  0
 35 36  1  0  0  0  0
 36 37  1  0  0  0  0
 37 38  1  0  0  0  0
 38 39  1  6  0  0  0
 38 40  1  0  0  0  0
 40 41  1  0  0  0  0
 41 42  1  0  0  0  0
 42 43  1  0  0  0  0
 43 44  1  1  0  0  0
 43 45  1  0  0  0  0
 45 46  1  0  0  0  0
 46 47  1  0  0  0  0
 47 48  1  0  0  0  0
 48 49  1  0  0  0  0
 48 50  1  0  0  0  0
M  END
> <DRUGBANK_ID>
DB03402

> <DRUG_GROUPS>
experimental

> <GENERIC_NAME>
1,2-Di-1-(3,7,11,15-Tetramethyl-Hexadecane)-Sn-Glycero-3-Phosphate

> <CHEMICAL_FORMULA>
C43H89O6P

> <MOLECULAR_WEIGHT>
733.1369

> <EXACT_MASS>
732.639677092

> <IUPAC_NAME>
[(2S)-2-{[(3R,7S,11R)-3,7,11,15-tetramethylhexadecyl]oxy}-3-{[(3S,7R,11S)-3,7,11,15-tetramethylhexadecyl]oxy}propoxy]phosphonic acid

> <IUPAC_TRADITIONAL_NAME>
(2S)-2-{[(3R,7S,11R)-3,7,11,15-tetramethylhexadecyl]oxy}-3-{[(3S,7R,11S)-3,7,11,15-tetramethylhexadecyl]oxy}propoxyphosphonic acid

> <INCHI_IDENTIFIER>
InChI=1S/C43H89O6P/c1-35(2)17-11-19-37(5)21-13-23-39(7)25-15-27-41(9)29-31-47-33-43(34-49-50(44,45)46)48-32-30-42(10)28-16-26-40(8)24-14-22-38(6)20-12-18-36(3)4/h35-43H,11-34H2,1-10H3,(H2,44,45,46)/t37-,38+,39+,40-,41-,42+,43-/m0/s1

> <INCHI_KEY>
InChIKey=UKQGAMWGTOTQPC-NARORWSISA-N

> <SMILES>
CC(C)CCC[C@H](C)CCC[C@@H](C)CCC[C@H](C)CCOC[C@@H](COP(O)(O)=O)OCC[C@H](C)CCC[C@@H](C)CCC[C@H](C)CCCC(C)C

> <JCHEM_ACCEPTOR_COUNT>
5

> <JCHEM_DONOR_COUNT>
2

> <JCHEM_ACIDIC_PKA>
1.25

> <JCHEM_BASIC_PKA>
-3.9

> <JCHEM_PHYSIOLOGICAL_CHARGE>
-2

> <ALOGPS_LOGP>
9.73

> <JCHEM_LOGP>
14.94

> <ALOGPS_LOGS>
-7.2

> <JCHEM_POLARIZABILITY>
94.11

> <JCHEM_POLAR_SURFACE_AREA>
85.22

> <JCHEM_REFRACTIVITY>
215.45

> <JCHEM_ROTATABLE_BOND_COUNT>
36

> <ALOGPS_SOLUBILITY>
5.11e-05 g/l __ 

$$$$
