
  Mrv0541 02231217002D          

 13 12  0  0  1  0            999 V2000
    7.2849    3.3809    0.0000 N   0  0  0  0  0  0  0  0  0  0  0  0
    7.2849    2.5559    0.0000 C   0  0  1  0  0  0  0  0  0  0  0  0
    6.5704    2.1434    0.0000 C   0  0  0  0  0  0  0  0  0  0  0  0
    5.8559    2.5559    0.0000 C   0  0  0  0  0  0  0  0  0  0  0  0
    5.8559    3.3809    0.0000 O   0  0  0  0  0  0  0  0  0  0  0  0
    5.1414    2.1434    0.0000 O   0  0  0  0  0  0  0  0  0  0  0  0
    4.4270    2.5559    0.0000 C   0  0  0  0  0  0  0  0  0  0  0  0
    3.7125    2.1434    0.0000 C   0  0  0  0  0  0  0  0  0  0  0  0
    2.9980    2.5559    0.0000 O   0  0  0  0  0  0  0  0  0  0  0  0
    3.7125    1.3184    0.0000 O   0  0  0  0  0  0  0  0  0  0  0  0
    7.9993    2.1434    0.0000 C   0  0  0  0  0  0  0  0  0  0  0  0
    8.7138    2.5559    0.0000 O   0  0  0  0  0  0  0  0  0  0  0  0
    7.9993    1.3184    0.0000 O   0  0  0  0  0  0  0  0  0  0  0  0
  2  1  1  6  0  0  0
  2  3  1  0  0  0  0
  3  4  1  0  0  0  0
  4  5  2  0  0  0  0
  4  6  1  0  0  0  0
  6  7  1  0  0  0  0
  7  8  1  0  0  0  0
  8  9  1  0  0  0  0
  8 10  2  0  0  0  0
  2 11  1  0  0  0  0
 11 12  1  0  0  0  0
 11 13  2  0  0  0  0
M  END
> <DRUGBANK_ID>
DB03522

> <DRUG_GROUPS>
experimental

> <GENERIC_NAME>
Aspartic Acid-4-Carboxymethyl Ester

> <CHEMICAL_FORMULA>
C6H9NO6

> <MOLECULAR_WEIGHT>
191.1388

> <EXACT_MASS>
191.042987025

> <IUPAC_NAME>
(2S)-2-amino-4-(carboxymethoxy)-4-oxobutanoic acid

> <IUPAC_TRADITIONAL_NAME>
(2S)-2-amino-4-(carboxymethoxy)-4-oxobutanoic acid

> <INCHI_IDENTIFIER>
InChI=1S/C6H9NO6/c7-3(6(11)12)1-5(10)13-2-4(8)9/h3H,1-2,7H2,(H,8,9)(H,11,12)/t3-/m0/s1

> <INCHI_KEY>
InChIKey=VYJCBTPDYBSANG-VKHMYHEASA-N

> <SMILES>
N[C@@H](CC(=O)OCC(O)=O)C(O)=O

> <JCHEM_ACCEPTOR_COUNT>
6

> <JCHEM_DONOR_COUNT>
3

> <JCHEM_ACIDIC_PKA>
1.51

> <JCHEM_BASIC_PKA>
8.6

> <JCHEM_PHYSIOLOGICAL_CHARGE>
-1

> <ALOGPS_LOGP>
-3.4

> <JCHEM_LOGP>
-4

> <ALOGPS_LOGS>
-0.96

> <JCHEM_POLARIZABILITY>
16.43

> <JCHEM_POLAR_SURFACE_AREA>
126.92

> <JCHEM_REFRACTIVITY>
37.39

> <JCHEM_ROTATABLE_BOND_COUNT>
6

> <ALOGPS_SOLUBILITY>
2.09e+01 g/l __ 

$$$$
