
  Mrv0541 02231216572D          

 49 56  0  0  1  0            999 V2000
   -3.4660   -0.8150    0.0000 C    0  0  0  0  0  0  0  0  0  0  0  0
   -2.7684   -0.3746    0.0000 C    0  0  0  0  0  0  0  0  0  0  0  0
   -2.7146    0.4486    0.0000 C    0  0  0  0  0  0  0  0  0  0  0  0
   -3.3490    0.9760    0.0000 C    0  0  0  0  0  0  0  0  0  0  0  0
   -4.1230    0.6903    0.0000 C    0  0  0  0  0  0  0  0  0  0  0  0
   -4.7574    1.2176    0.0000 C    0  0  0  0  0  0  0  0  0  0  0  0
   -5.5313    0.9319    0.0000 O    0  0  0  0  0  0  0  0  0  0  0  0
   -4.6179    2.0308    0.0000 O    0  0  0  0  0  0  0  0  0  0  0  0
   -1.9151    0.6519    0.0000 C    0  0  0  0  0  0  0  0  0  0  0  0
   -1.3945    1.5893    0.0000 C    0  0  0  0  0  0  0  0  0  0  0  0
   -0.6802    2.0020    0.0000 C    0  0  0  0  0  0  0  0  0  0  0  0
   -0.3746    2.7684    0.0000 C    0  0  0  0  0  0  0  0  0  0  0  0
   -0.8150    3.4660    0.0000 C    0  0  0  0  0  0  0  0  0  0  0  0
   -0.4311    4.1962    0.0000 C    0  0  0  0  0  0  0  0  0  0  0  0
   -0.8715    4.8938    0.0000 C    0  0  0  0  0  0  0  0  0  0  0  0
   -1.6958    4.8612    0.0000 O    0  0  0  0  0  0  0  0  0  0  0  0
   -0.4875    5.6240    0.0000 O    0  0  0  0  0  0  0  0  0  0  0  0
    0.4486    2.7146    0.0000 C    0  0  0  0  0  0  0  0  0  0  0  0
    0.9760    3.3490    0.0000 C    0  0  0  0  0  0  0  0  0  0  0  0
    0.6519    1.9151    0.0000 C    0  0  0  0  0  0  0  0  0  0  0  0
    1.5893    1.3945    0.0000 C    0  0  0  0  0  0  0  0  0  0  0  0
    2.0020    0.6802    0.0000 C    0  0  0  0  0  0  0  0  0  0  0  0
    1.4746    0.0457    0.0000 N    0  3  0  0  0  0  0  0  0  0  0  0
    1.9151   -0.6519    0.0000 C    0  0  0  0  0  0  0  0  0  0  0  0
    1.3945   -1.5893    0.0000 C    0  0  0  0  0  0  0  0  0  0  0  0
    0.6802   -2.0020    0.0000 C    0  0  0  0  0  0  0  0  0  0  0  0
    0.0457   -1.4746    0.0000 N    0  3  0  0  0  0  0  0  0  0  0  0
   -0.6519   -1.9151    0.0000 C    0  0  0  0  0  0  0  0  0  0  0  0
   -1.5893   -1.3945    0.0000 C    0  0  0  0  0  0  0  0  0  0  0  0
   -2.0020   -0.6802    0.0000 C    0  0  0  0  0  0  0  0  0  0  0  0
   -1.4746   -0.0457    0.0000 N    0  0  0  0  0  0  0  0  0  0  0  0
    0.0000    0.0000    0.0000 Fe   0  0  2  0  0  0  0  0  0  0  0  0
   -0.0457    1.4746    0.0000 N    0  0  0  0  0  0  0  0  0  0  0  0
   -0.4486   -2.7146    0.0000 C    0  0  0  0  0  0  0  0  0  0  0  0
   -0.9760   -3.3490    0.0000 O    0  0  0  0  0  0  0  0  0  0  0  0
    0.3746   -2.7684    0.0000 C    0  0  2  0  0  0  0  0  0  0  0  0
    0.4159   -3.5923    0.0000 C    0  0  0  0  0  0  0  0  0  0  0  0
    1.1008   -3.1599    0.0000 C    0  0  0  0  0  0  0  0  0  0  0  0
    1.1247   -3.9846    0.0000 C    0  0  0  0  0  0  0  0  0  0  0  0
    1.8509   -4.3762    0.0000 O    0  0  0  0  0  0  0  0  0  0  0  0
    0.4226   -4.4177    0.0000 O    0  0  0  0  0  0  0  0  0  0  0  0
    2.7146   -0.4486    0.0000 C    0  0  0  0  0  0  0  0  0  0  0  0
    3.3490   -0.9760    0.0000 O    0  0  0  0  0  0  0  0  0  0  0  0
    2.7684    0.3746    0.0000 C    0  0  1  0  0  0  0  0  0  0  0  0
    3.5923    0.4159    0.0000 C    0  0  0  0  0  0  0  0  0  0  0  0
    3.1599    1.1008    0.0000 C    0  0  0  0  0  0  0  0  0  0  0  0
    2.7269    1.8030    0.0000 C    0  0  0  0  0  0  0  0  0  0  0  0
    1.9022    1.7790    0.0000 O    0  0  0  0  0  0  0  0  0  0  0  0
    3.1184    2.5291    0.0000 O    0  0  0  0  0  0  0  0  0  0  0  0
  1  2  1  0  0  0  0
  2  3  2  0  0  0  0
  3  4  1  0  0  0  0
  4  5  1  0  0  0  0
  5  6  1  0  0  0  0
  6  7  1  0  0  0  0
  6  8  2  0  0  0  0
  3  9  1  0  0  0  0
  9 10  2  0  0  0  0
 10 11  1  0  0  0  0
 11 12  2  0  0  0  0
 12 13  1  0  0  0  0
 13 14  1  0  0  0  0
 14 15  1  0  0  0  0
 15 16  1  0  0  0  0
 15 17  2  0  0  0  0
 12 18  1  0  0  0  0
 18 19  1  0  0  0  0
 18 20  2  0  0  0  0
 20 21  1  0  0  0  0
 21 22  2  0  0  0  0
 22 23  1  0  0  0  0
 23 24  2  0  0  0  0
 24 25  1  0  0  0  0
 25 26  2  0  0  0  0
 26 27  1  0  0  0  0
 27 28  2  0  0  0  0
 28 29  1  0  0  0  0
 29 30  2  0  0  0  0
  2 30  1  0  0  0  0
 30 31  1  0  0  0  0
  9 31  1  0  0  0  0
 32 31  1  6  0  0  0
 23 32  1  0  0  0  0
 27 32  1  0  0  0  0
 32 33  1  0  0  0  0
 11 33  1  0  0  0  0
 20 33  1  0  0  0  0
 28 34  1  0  0  0  0
 34 35  2  0  0  0  0
 34 36  1  0  0  0  0
 26 36  1  0  0  0  0
 36 37  1  1  0  0  0
 36 38  1  6  0  0  0
 38 39  1  0  0  0  0
 39 40  1  0  0  0  0
 39 41  2  0  0  0  0
 24 42  1  0  0  0  0
 42 43  2  0  0  0  0
 42 44  1  0  0  0  0
 22 44  1  0  0  0  0
 44 45  1  6  0  0  0
 44 46  1  1  0  0  0
 46 47  1  0  0  0  0
 47 48  1  0  0  0  0
 47 49  2  0  0  0  0
M  END
> <DRUGBANK_ID>
DB03469

> <DRUG_GROUPS>
experimental

> <GENERIC_NAME>
Heme D

> <CHEMICAL_FORMULA>
C34H32FeN4O10

> <MOLECULAR_WEIGHT>
712.484

> <EXACT_MASS>
712.146785397

> <IUPAC_NAME>
(1R,4S,19R)-10,14-bis(2-carboxyethyl)-4,19-bis(carboxymethyl)-4,9,15,19-tetramethyl-5,20-dioxo-2$l^{5},22$l^{5},23,25-tetraaza-1-ferraoctacyclo[11.9.1.1^{1,8}.1^{3,21}.0^{2,6}.0^{16,23}.0^{18,22}.0^{11,25}]pentacosa-2(6),3(24),7,9,11,13,15,17,21-nonaene-2,22-bis(ylium)

> <IUPAC_TRADITIONAL_NAME>
heme D

> <INCHI_IDENTIFIER>
InChI=1S/C34H34N4O10.Fe/c1-15-17(5-7-27(39)40)21-10-22-18(6-8-28(41)42)16(2)20(36-22)11-25-33(3,13-29(43)44)32(48)24(38-25)12-26-34(4,14-30(45)46)31(47)23(37-26)9-19(15)35-21;/h9-12H,5-8,13-14H2,1-4H3,(H6,35,36,37,38,39,40,41,42,43,44,45,46,47,48);/q;+4/p-2/t33-,34+;/m1./s1

> <INCHI_KEY>
InChIKey=LZXRDVBJJHBQJH-VBAOBBRWSA-L

> <SMILES>
CC1=C(CCC(O)=O)C2=CC3=C(CCC(O)=O)C(C)=C4C=C5[N+]6=C(C=C7[N+]8=C(C=C1N2[Fe@]68N34)C(=O)[C@@]7(C)CC(O)=O)C(=O)[C@]5(C)CC(O)=O

> <JCHEM_ACCEPTOR_COUNT>
10

> <JCHEM_DONOR_COUNT>
4

> <JCHEM_ACIDIC_PKA>
2.53

> <JCHEM_BASIC_PKA>
-8.8

> <JCHEM_PHYSIOLOGICAL_CHARGE>
-2

> <ALOGPS_LOGP>
1.21

> <JCHEM_LOGP>
-3.5

> <ALOGPS_LOGS>
-5.8

> <JCHEM_POLARIZABILITY>
72.65

> <JCHEM_POLAR_SURFACE_AREA>
200.96

> <JCHEM_REFRACTIVITY>
173.6

> <JCHEM_ROTATABLE_BOND_COUNT>
10

> <ALOGPS_SOLUBILITY>
1.32e-03 g/l __ 

$$$$
