
  Mrv0541 02231216392D          

 49 48  0  0  1  0            999 V2000
   11.1375   11.3802    0.0000 C   0  0  0  0  0  0  0  0  0  0  0  0
   11.1375   10.5552    0.0000 C   0  0  0  0  0  0  0  0  0  0  0  0
   10.4230   10.1427    0.0000 C   0  0  0  0  0  0  0  0  0  0  0  0
   10.4230    9.3177    0.0000 C   0  0  0  0  0  0  0  0  0  0  0  0
    9.7086    8.9052    0.0000 C   0  0  0  0  0  0  0  0  0  0  0  0
    9.7086    8.0802    0.0000 C   0  0  0  0  0  0  0  0  0  0  0  0
   10.4230    7.6677    0.0000 C   0  0  0  0  0  0  0  0  0  0  0  0
   10.4230    6.8427    0.0000 C   0  0  0  0  0  0  0  0  0  0  0  0
   11.1375    6.4302    0.0000 C   0  0  0  0  0  0  0  0  0  0  0  0
   11.8520    6.8427    0.0000 C   0  0  0  0  0  0  0  0  0  0  0  0
   12.5664    6.4302    0.0000 C   0  0  0  0  0  0  0  0  0  0  0  0
   13.2809    6.8427    0.0000 C   0  0  0  0  0  0  0  0  0  0  0  0
   13.9954    6.4302    0.0000 C   0  0  0  0  0  0  0  0  0  0  0  0
   14.7099    6.8427    0.0000 C   0  0  0  0  0  0  0  0  0  0  0  0
   15.4243    6.4302    0.0000 C   0  0  0  0  0  0  0  0  0  0  0  0
   16.1388    6.8427    0.0000 C   0  0  0  0  0  0  0  0  0  0  0  0
   16.1388    7.6677    0.0000 O   0  0  0  0  0  0  0  0  0  0  0  0
   16.8533    6.4302    0.0000 O   0  0  0  0  0  0  0  0  0  0  0  0
   17.5677    6.8427    0.0000 C   0  0  1  0  0  0  0  0  0  0  0  0
   18.2822    6.4302    0.0000 C   0  0  0  0  0  0  0  0  0  0  0  0
   18.9967    6.8427    0.0000 O   0  0  0  0  0  0  0  0  0  0  0  0
   19.7112    6.4302    0.0000 C   0  0  0  0  0  0  0  0  0  0  0  0
   19.7112    5.6052    0.0000 O   0  0  0  0  0  0  0  0  0  0  0  0
   20.4256    6.8427    0.0000 C   0  0  0  0  0  0  0  0  0  0  0  0
   21.1401    6.4302    0.0000 C   0  0  0  0  0  0  0  0  0  0  0  0
   21.8546    6.8427    0.0000 C   0  0  0  0  0  0  0  0  0  0  0  0
   22.5690    6.4302    0.0000 C   0  0  0  0  0  0  0  0  0  0  0  0
   23.2835    6.8427    0.0000 C   0  0  0  0  0  0  0  0  0  0  0  0
   23.9980    6.4302    0.0000 C   0  0  0  0  0  0  0  0  0  0  0  0
   24.7124    6.8427    0.0000 C   0  0  0  0  0  0  0  0  0  0  0  0
   25.4269    6.4302    0.0000 C   0  0  0  0  0  0  0  0  0  0  0  0
   26.1414    6.8427    0.0000 C   0  0  0  0  0  0  0  0  0  0  0  0
   26.8559    6.4302    0.0000 C   0  0  0  0  0  0  0  0  0  0  0  0
   27.5703    6.8427    0.0000 C   0  0  0  0  0  0  0  0  0  0  0  0
   28.2848    6.4302    0.0000 C   0  0  0  0  0  0  0  0  0  0  0  0
   28.9993    6.8427    0.0000 C   0  0  0  0  0  0  0  0  0  0  0  0
   29.7137    6.4302    0.0000 C   0  0  0  0  0  0  0  0  0  0  0  0
   30.4282    6.8427    0.0000 C   0  0  0  0  0  0  0  0  0  0  0  0
   31.1427    6.4302    0.0000 C   0  0  0  0  0  0  0  0  0  0  0  0
   31.8572    6.8427    0.0000 C   0  0  0  0  0  0  0  0  0  0  0  0
   17.5677    7.6677    0.0000 C   0  0  0  0  0  0  0  0  0  0  0  0
   18.2822    8.0802    0.0000 O   0  0  0  0  0  0  0  0  0  0  0  0
   18.2822    8.9052    0.0000 P   0  0  2  0  0  0  0  0  0  0  0  0
   17.4572    8.9052    0.0000 O   0  0  0  0  0  0  0  0  0  0  0  0
   19.1072    8.9052    0.0000 O   0  0  0  0  0  0  0  0  0  0  0  0
   18.2822    9.7302    0.0000 O   0  0  0  0  0  0  0  0  0  0  0  0
   18.9967   10.1427    0.0000 C   0  0  0  0  0  0  0  0  0  0  0  0
   18.9967   10.9677    0.0000 C   0  0  0  0  0  0  0  0  0  0  0  0
   19.7112   11.3802    0.0000 N   0  0  0  0  0  0  0  0  0  0  0  0
  1  2  1  0  0  0  0
  2  3  1  0  0  0  0
  3  4  1  0  0  0  0
  4  5  2  0  0  0  0
  5  6  1  0  0  0  0
  6  7  1  0  0  0  0
  7  8  2  0  0  0  0
  8  9  1  0  0  0  0
  9 10  1  0  0  0  0
 10 11  1  0  0  0  0
 11 12  1  0  0  0  0
 12 13  1  0  0  0  0
 13 14  1  0  0  0  0
 14 15  1  0  0  0  0
 15 16  1  0  0  0  0
 16 17  2  0  0  0  0
 16 18  1  0  0  0  0
 19 18  1  6  0  0  0
 19 20  1  0  0  0  0
 20 21  1  0  0  0  0
 21 22  1  0  0  0  0
 22 23  2  0  0  0  0
 22 24  1  0  0  0  0
 24 25  1  0  0  0  0
 25 26  1  0  0  0  0
 26 27  1  0  0  0  0
 27 28  1  0  0  0  0
 28 29  1  0  0  0  0
 29 30  1  0  0  0  0
 30 31  2  0  0  0  0
 31 32  1  0  0  0  0
 32 33  1  0  0  0  0
 33 34  1  0  0  0  0
 34 35  2  0  0  0  0
 35 36  1  0  0  0  0
 36 37  1  0  0  0  0
 37 38  1  0  0  0  0
 38 39  2  0  0  0  0
 39 40  1  0  0  0  0
 19 41  1  0  0  0  0
 41 42  1  0  0  0  0
 43 42  1  1  0  0  0
 43 44  1  6  0  0  0
 43 45  2  0  0  0  0
 43 46  1  0  0  0  0
 46 47  1  0  0  0  0
 47 48  1  0  0  0  0
 48 49  1  0  0  0  0
M  END
> <DRUGBANK_ID>
DB03047

> <DRUG_GROUPS>
experimental

> <GENERIC_NAME>
L-Alpha-Phosphatidyl-Beta-Oleoyl-Gamma-Palmitoyl-Phosphatidylethanolamine

> <CHEMICAL_FORMULA>
C39H68NO8P

> <MOLECULAR_WEIGHT>
709.9329

> <EXACT_MASS>
709.468254669

> <IUPAC_NAME>
(2-aminoethoxy)[(2S)-2-[(9E,12E)-hexadeca-9,12-dienoyloxy]-3-[(8E,12E,16E)-octadeca-8,12,16-trienoyloxy]propoxy]phosphinic acid

> <IUPAC_TRADITIONAL_NAME>
2-aminoethoxy(2S)-2-[(9E,12E)-hexadeca-9,12-dienoyloxy]-3-[(8E,12E,16E)-octadeca-8,12,16-trienoyloxy]propoxyphosphinic acid

> <INCHI_IDENTIFIER>
InChI=1S/C39H68NO8P/c1-3-5-7-9-11-13-15-17-18-20-21-23-25-27-29-31-38(41)45-35-37(36-47-49(43,44)46-34-33-40)48-39(42)32-30-28-26-24-22-19-16-14-12-10-8-6-4-2/h3,5,8,10-11,13-14,16,18,20,37H,4,6-7,9,12,15,17,19,21-36,40H2,1-2H3,(H,43,44)/b5-3+,10-8+,13-11+,16-14+,20-18+/t37-/m0/s1

> <INCHI_KEY>
InChIKey=MABRTXOVHMDVAT-LNOVHSNCSA-N

> <SMILES>
CCC\C=C\C\C=C\CCCCCCCC(=O)O[C@@H](COC(=O)CCCCCC\C=C\CC\C=C\CC\C=C\C)CO[P@](O)(=O)OCCN

> <JCHEM_ACCEPTOR_COUNT>
5

> <JCHEM_DONOR_COUNT>
2

> <JCHEM_ACIDIC_PKA>
1.87

> <JCHEM_BASIC_PKA>
10

> <JCHEM_PHYSIOLOGICAL_CHARGE>
0

> <ALOGPS_LOGP>
7.88

> <JCHEM_LOGP>
9.53

> <ALOGPS_LOGS>
-6.8

> <JCHEM_POLARIZABILITY>
84.63

> <JCHEM_POLAR_SURFACE_AREA>
134.38

> <JCHEM_REFRACTIVITY>
205.79

> <JCHEM_ROTATABLE_BOND_COUNT>
36

> <ALOGPS_SOLUBILITY>
1.07e-04 g/l __ 

$$$$
