
  Mrv0541 02231217192D          

  8  7  0  0  0  0            999 V2000
    0.1105   -2.0625    0.0000 C   0  0  0  0  0  0  0  0  0  0  0  0
    0.1105   -1.2375    0.0000 C   0  0  0  0  0  0  0  0  0  0  0  0
   -0.6039   -0.8250    0.0000 C   0  0  0  0  0  0  0  0  0  0  0  0
    0.8250   -0.8250    0.0000 O   0  0  0  0  0  0  0  0  0  0  0  0
    0.8250    0.0000    0.0000 P   0  0  0  0  0  0  0  0  0  0  0  0
    0.8250    0.8250    0.0000 O   0  0  0  0  0  0  0  0  0  0  0  0
    1.6500    0.0000    0.0000 O   0  0  0  0  0  0  0  0  0  0  0  0
    0.0000    0.0000    0.0000 O   0  0  0  0  0  0  0  0  0  0  0  0
  1  2  1  0  0  0  0
  2  3  1  0  0  0  0
  2  4  1  0  0  0  0
  4  5  1  0  0  0  0
  5  6  1  0  0  0  0
  5  7  1  0  0  0  0
  5  8  2  0  0  0  0
M  END
> <DRUGBANK_ID>
DB03976

> <DRUG_GROUPS>
experimental

> <GENERIC_NAME>
Phosphorylisopropane

> <CHEMICAL_FORMULA>
C3H9O4P

> <MOLECULAR_WEIGHT>
140.0749

> <EXACT_MASS>
140.023845288

> <IUPAC_NAME>
(propan-2-yloxy)phosphonic acid

> <IUPAC_TRADITIONAL_NAME>
phosphorylisopropane

> <INCHI_IDENTIFIER>
InChI=1S/C3H9O4P/c1-3(2)7-8(4,5)6/h3H,1-2H3,(H2,4,5,6)

> <INCHI_KEY>
InChIKey=QPPQHRDVPBTVEV-UHFFFAOYSA-N

> <SMILES>
CC(C)OP(O)(O)=O

> <JCHEM_ACCEPTOR_COUNT>
3

> <JCHEM_DONOR_COUNT>
2

> <JCHEM_ACIDIC_PKA>
1.78

> <JCHEM_PHYSIOLOGICAL_CHARGE>
-2

> <ALOGPS_LOGP>
-0.13

> <JCHEM_LOGP>
0.13

> <ALOGPS_LOGS>
-0.68

> <JCHEM_POLARIZABILITY>
11.61

> <JCHEM_POLAR_SURFACE_AREA>
66.76

> <JCHEM_REFRACTIVITY>
28.3

> <JCHEM_ROTATABLE_BOND_COUNT>
2

> <ALOGPS_SOLUBILITY>
2.96e+01 g/l __ 

$$$$
