
  Mrv0541 02231216542D          

  6  6  0  0  0  0            999 V2000
    0.5678    1.9393    0.0000 C   0  0  0  0  0  0  0  0  0  0  0  0
    0.5678    1.1143    0.0000 C   0  0  0  0  0  0  0  0  0  0  0  0
    1.2352    0.6294    0.0000 C   0  0  0  0  0  0  0  0  0  0  0  0
    0.9803   -0.1553    0.0000 N   0  0  0  0  0  0  0  0  0  0  0  0
    0.1553   -0.1553    0.0000 C   0  0  0  0  0  0  0  0  0  0  0  0
   -0.0997    0.6294    0.0000 N   0  0  0  0  0  0  0  0  0  0  0  0
  1  2  1  0  0  0  0
  2  3  4  0  0  0  0
  3  4  4  0  0  0  0
  4  5  4  0  0  0  0
  5  6  4  0  0  0  0
  2  6  4  0  0  0  0
M  END
> <DRUGBANK_ID>
DB03385

> <DRUG_GROUPS>
experimental

> <GENERIC_NAME>
4-Methylimidazole

> <CHEMICAL_FORMULA>
C4H5N2

> <MOLECULAR_WEIGHT>
81.0959

> <EXACT_MASS>
81.04527317

> <IUPAC_NAME>
4-methylimidazole

> <IUPAC_TRADITIONAL_NAME>
4-methylimidazole

> <SMILES>
Cc1cncn1

> <JCHEM_ACCEPTOR_COUNT>
2

> <JCHEM_DONOR_COUNT>
0

> <JCHEM_BASIC_PKA>
2.85

> <JCHEM_PHYSIOLOGICAL_CHARGE>
0

> <ALOGPS_LOGP>
0.1

> <JCHEM_LOGP>
-0.15

> <ALOGPS_LOGS>
0.85

> <JCHEM_POLARIZABILITY>
8.31

> <JCHEM_POLAR_SURFACE_AREA>
25.78

> <JCHEM_REFRACTIVITY>
22.97

> <JCHEM_ROTATABLE_BOND_COUNT>
0

> <ALOGPS_SOLUBILITY>
5.78e+02 g/l __ 

$$$$
