
  Mrv0541 02231217032D          

 33 35  0  0  1  0            999 V2000
   -1.4289   -2.4750    0.0000 O    0  0  0  0  0  0  0  0  0  0  0  0
   -1.4289   -1.6500    0.0000 C    0  0  0  0  0  0  0  0  0  0  0  0
   -2.1434   -1.2375    0.0000 O    0  0  0  0  0  0  0  0  0  0  0  0
   -0.7145   -1.2375    0.0000 C    0  0  1  0  0  0  0  0  0  0  0  0
   -0.7145   -0.4125    0.0000 C    0  0  0  0  0  0  0  0  0  0  0  0
   -1.4289    0.0000    0.0000 C    0  0  0  0  0  0  0  0  0  0  0  0
   -2.1434   -0.4125    0.0000 C    0  0  0  0  0  0  0  0  0  0  0  0
   -2.8579    0.0000    0.0000 C    0  0  0  0  0  0  0  0  0  0  0  0
   -2.8579    0.8250    0.0000 C    0  0  0  0  0  0  0  0  0  0  0  0
   -2.1434    1.2375    0.0000 C    0  0  0  0  0  0  0  0  0  0  0  0
   -1.4289    0.8250    0.0000 C    0  0  0  0  0  0  0  0  0  0  0  0
    0.0000   -1.6500    0.0000 N    0  0  0  0  0  0  0  0  0  0  0  0
    0.0000   -2.4750    0.0000 C    0  0  0  0  0  0  0  0  0  0  0  0
    0.7145   -2.8875    0.0000 C    0  0  0  0  0  0  0  0  0  0  0  0
    1.4289   -2.4750    0.0000 C    0  0  0  0  0  0  0  0  0  0  0  0
    2.1434   -2.8875    0.0000 C    0  0  0  0  0  0  0  0  0  0  0  0
    2.1434   -3.7125    0.0000 C    0  0  0  0  0  0  0  0  0  0  0  0
    1.4289   -4.1250    0.0000 C    0  0  0  0  0  0  0  0  0  0  0  0
    0.7145   -3.7125    0.0000 C    0  0  0  0  0  0  0  0  0  0  0  0
    1.4289   -4.9500    0.0000 C    0  0  0  0  0  0  0  0  0  0  0  0
    1.4289   -5.7750    0.0000 F    0  0  0  0  0  0  0  0  0  0  0  0
    0.6039   -4.9500    0.0000 F    0  0  0  0  0  0  0  0  0  0  0  0
    2.2539   -4.9500    0.0000 F    0  0  0  0  0  0  0  0  0  0  0  0
    0.7145   -1.2375    0.0000 C    0  0  0  0  0  0  0  0  0  0  0  0
    1.4289   -1.6500    0.0000 O    0  0  0  0  0  0  0  0  0  0  0  0
    0.7145   -0.4125    0.0000 C    0  0  0  0  0  0  0  0  0  0  0  0
    0.0000    0.0000    0.0000 C    0  0  0  0  0  0  0  0  0  0  0  0
    0.0000    0.8250    0.0000 C    0  0  0  0  0  0  0  0  0  0  0  0
    0.7145    1.2375    0.0000 C    0  0  0  0  0  0  0  0  0  0  0  0
    0.7145    2.0625    0.0000 Cl   0  0  0  0  0  0  0  0  0  0  0  0
    1.4289    0.8250    0.0000 C    0  0  0  0  0  0  0  0  0  0  0  0
    1.4289    0.0000    0.0000 C    0  0  0  0  0  0  0  0  0  0  0  0
    2.1434   -0.4125    0.0000 Cl   0  0  0  0  0  0  0  0  0  0  0  0
  1  2  1  0  0  0  0
  2  3  2  0  0  0  0
  2  4  1  0  0  0  0
  4  5  1  0  0  0  0
  5  6  1  0  0  0  0
  6  7  2  0  0  0  0
  7  8  1  0  0  0  0
  8  9  2  0  0  0  0
  9 10  1  0  0  0  0
 10 11  2  0  0  0  0
  6 11  1  0  0  0  0
  4 12  1  1  0  0  0
 12 13  1  0  0  0  0
 13 14  1  0  0  0  0
 14 15  2  0  0  0  0
 15 16  1  0  0  0  0
 16 17  2  0  0  0  0
 17 18  1  0  0  0  0
 18 19  2  0  0  0  0
 14 19  1  0  0  0  0
 18 20  1  0  0  0  0
 20 21  1  0  0  0  0
 20 22  1  0  0  0  0
 20 23  1  0  0  0  0
 12 24  1  0  0  0  0
 24 25  2  0  0  0  0
 24 26  1  0  0  0  0
 26 27  2  0  0  0  0
 27 28  1  0  0  0  0
 28 29  2  0  0  0  0
 29 30  1  0  0  0  0
 29 31  1  0  0  0  0
 31 32  2  0  0  0  0
 26 32  1  0  0  0  0
 32 33  1  0  0  0  0
M  END
> <DRUGBANK_ID>
DB03605

> <DRUG_GROUPS>
experimental

> <GENERIC_NAME>
(2s)-2-[(2,4-Dichloro-Benzoyl)-(3-Trifluoromethyl-Benzyl)-Amino]-3-Phenyl-Propionic Acid

> <CHEMICAL_FORMULA>
C24H18Cl2F3NO3

> <MOLECULAR_WEIGHT>
496.306

> <EXACT_MASS>
495.061583476

> <IUPAC_NAME>
(2R)-2-[1-(2,4-dichlorophenyl)-N-{[3-(trifluoromethyl)phenyl]methyl}formamido]-3-phenylpropanoic acid

> <IUPAC_TRADITIONAL_NAME>
(2R)-2-[1-(2,4-dichlorophenyl)-N-{[3-(trifluoromethyl)phenyl]methyl}formamido]-3-phenylpropanoic acid

> <INCHI_IDENTIFIER>
InChI=1S/C24H18Cl2F3NO3/c25-18-9-10-19(20(26)13-18)22(31)30(14-16-7-4-8-17(11-16)24(27,28)29)21(23(32)33)12-15-5-2-1-3-6-15/h1-11,13,21H,12,14H2,(H,32,33)/t21-/m1/s1

> <INCHI_KEY>
InChIKey=LAJJKGIZTCCOHY-OAQYLSRUSA-N

> <SMILES>
OC(=O)[C@@H](CC1=CC=CC=C1)N(CC1=CC=CC(=C1)C(F)(F)F)C(=O)C1=CC=C(Cl)C=C1Cl

> <JCHEM_ACCEPTOR_COUNT>
3

> <JCHEM_DONOR_COUNT>
1

> <JCHEM_ACIDIC_PKA>
3.59

> <JCHEM_BASIC_PKA>
-1.6

> <JCHEM_PHYSIOLOGICAL_CHARGE>
-1

> <ALOGPS_LOGP>
5.52

> <JCHEM_LOGP>
6.78

> <ALOGPS_LOGS>
-6.1

> <JCHEM_POLARIZABILITY>
44.14

> <JCHEM_POLAR_SURFACE_AREA>
57.61

> <JCHEM_REFRACTIVITY>
120.32

> <JCHEM_ROTATABLE_BOND_COUNT>
8

> <ALOGPS_SOLUBILITY>
3.79e-04 g/l __ 

$$$$
