
  Mrv0541 02231216412D          

 25 26  0  0  1  0            999 V2000
   -6.5742    4.8356    0.0000 C   0  0  0  0  0  0  0  0  0  0  0  0
   -6.0893    4.1682    0.0000 C   0  0  0  0  0  0  0  0  0  0  0  0
   -5.2688    4.2544    0.0000 C   0  0  0  0  0  0  0  0  0  0  0  0
   -4.7839    3.5870    0.0000 N   0  0  0  0  0  0  0  0  0  0  0  0
   -3.9634    3.6732    0.0000 C   0  0  1  0  0  0  0  0  0  0  0  0
   -3.5509    4.3877    0.0000 C   0  0  0  0  0  0  0  0  0  0  0  0
   -2.7439    4.2162    0.0000 C   0  0  1  0  0  0  0  0  0  0  0  0
   -2.1308    4.7682    0.0000 O   0  0  0  0  0  0  0  0  0  0  0  0
   -2.6577    3.3957    0.0000 C   0  0  2  0  0  0  0  0  0  0  0  0
   -1.9432    2.9832    0.0000 C   0  0  0  0  0  0  0  0  0  0  0  0
   -1.2288    3.3957    0.0000 O   0  0  0  0  0  0  0  0  0  0  0  0
   -0.5143    2.9832    0.0000 P   0  0  2  0  0  0  0  0  0  0  0  0
   -0.1018    3.6977    0.0000 O   0  0  0  0  0  0  0  0  0  0  0  0
   -0.9268    2.2687    0.0000 O   0  0  0  0  0  0  0  0  0  0  0  0
    0.2002    2.5707    0.0000 O   0  0  0  0  0  0  0  0  0  0  0  0
    0.9146    2.9832    0.0000 P   0  0  0  0  0  0  0  0  0  0  0  0
    1.6291    3.3957    0.0000 O   0  0  0  0  0  0  0  0  0  0  0  0
    0.5021    3.6977    0.0000 O   0  0  0  0  0  0  0  0  0  0  0  0
    1.3271    2.2687    0.0000 O   0  0  0  0  0  0  0  0  0  0  0  0
   -3.4114    3.0601    0.0000 O   0  0  0  0  0  0  0  0  0  0  0  0
   -5.1195    2.8333    0.0000 C   0  0  0  0  0  0  0  0  0  0  0  0
   -4.6345    2.1659    0.0000 O   0  0  0  0  0  0  0  0  0  0  0  0
   -5.9399    2.7471    0.0000 N   0  0  0  0  0  0  0  0  0  0  0  0
   -6.4249    3.4145    0.0000 C   0  0  0  0  0  0  0  0  0  0  0  0
   -7.2453    3.3283    0.0000 O   0  0  0  0  0  0  0  0  0  0  0  0
  1  2  1  0  0  0  0
  2  3  2  0  0  0  0
  3  4  1  0  0  0  0
  5  4  1  1  0  0  0
  5  6  1  0  0  0  0
  6  7  1  0  0  0  0
  7  8  1  1  0  0  0
  7  9  1  0  0  0  0
  9 10  1  6  0  0  0
 10 11  1  0  0  0  0
 12 11  1  1  0  0  0
 12 13  1  6  0  0  0
 12 14  2  0  0  0  0
 12 15  1  0  0  0  0
 15 16  1  0  0  0  0
 16 17  1  0  0  0  0
 16 18  1  0  0  0  0
 16 19  2  0  0  0  0
  9 20  1  0  0  0  0
  5 20  1  0  0  0  0
  4 21  1  0  0  0  0
 21 22  2  0  0  0  0
 21 23  1  0  0  0  0
 23 24  1  0  0  0  0
  2 24  1  0  0  0  0
 24 25  2  0  0  0  0
M  END
> <DRUGBANK_ID>
DB03103

> <DRUG_GROUPS>
experimental

> <GENERIC_NAME>
Thymidine-5'- Diphosphate

> <CHEMICAL_FORMULA>
C10H16N2O11P2

> <MOLECULAR_WEIGHT>
402.1884

> <EXACT_MASS>
402.022932388

> <IUPAC_NAME>
{[hydroxy({[(2S,3R,5R)-3-hydroxy-5-(5-methyl-2,4-dioxo-1,2,3,4-tetrahydropyrimidin-1-yl)oxolan-2-yl]methoxy})phosphoryl]oxy}phosphonic acid

> <IUPAC_TRADITIONAL_NAME>
{hydroxy[(2S,3R,5R)-3-hydroxy-5-(5-methyl-2,4-dioxo-3H-pyrimidin-1-yl)oxolan-2-yl]methoxyphosphoryl}oxyphosphonic acid

> <INCHI_IDENTIFIER>
InChI=1S/C10H16N2O11P2/c1-5-3-12(10(15)11-9(5)14)8-2-6(13)7(22-8)4-21-25(19,20)23-24(16,17)18/h3,6-8,13H,2,4H2,1H3,(H,19,20)(H,11,14,15)(H2,16,17,18)/t6-,7+,8-/m1/s1

> <INCHI_KEY>
InChIKey=UJLXYODCHAELLY-GJMOJQLCSA-N

> <SMILES>
CC1=CN([C@H]2C[C@@H](O)[C@H](CO[P@](O)(=O)OP(O)(O)=O)O2)C(=O)NC1=O

> <JCHEM_ACCEPTOR_COUNT>
9

> <JCHEM_DONOR_COUNT>
5

> <JCHEM_ACIDIC_PKA>
1.77

> <JCHEM_BASIC_PKA>
-3.2

> <JCHEM_PHYSIOLOGICAL_CHARGE>
-2

> <ALOGPS_LOGP>
-0.87

> <JCHEM_LOGP>
-1.7

> <ALOGPS_LOGS>
-1.8

> <JCHEM_POLARIZABILITY>
32.32

> <JCHEM_POLAR_SURFACE_AREA>
192.16

> <JCHEM_REFRACTIVITY>
77.16

> <JCHEM_ROTATABLE_BOND_COUNT>
6

> <ALOGPS_SOLUBILITY>
6.94e+00 g/l __ 

$$$$
