
  Mrv0541 02231216512D          

 24 26  0  0  1  0            999 V2000
    4.0668    2.3479    0.0000 C   0  0  0  0  0  0  0  0  0  0  0  0
    3.3523    1.9354    0.0000 N   0  0  0  0  0  0  0  0  0  0  0  0
    3.3523    1.1104    0.0000 C   0  0  0  0  0  0  0  0  0  0  0  0
    2.6378    0.6979    0.0000 N   0  0  0  0  0  0  0  0  0  0  0  0
    1.9233    1.1104    0.0000 C   0  0  0  0  0  0  0  0  0  0  0  0
    1.9233    1.9354    0.0000 C   0  0  0  0  0  0  0  0  0  0  0  0
    1.1387    2.1904    0.0000 N   0  0  0  0  0  0  0  0  0  0  0  0
    0.6538    1.5229    0.0000 C   0  0  0  0  0  0  0  0  0  0  0  0
    1.1387    0.8555    0.0000 N   0  0  0  0  0  0  0  0  0  0  0  0
    0.8838    0.0709    0.0000 C   0  0  2  0  0  0  0  0  0  0  0  0
    1.3687   -0.5966    0.0000 O   0  0  0  0  0  0  0  0  0  0  0  0
    0.8838   -1.2640    0.0000 C   0  0  1  0  0  0  0  0  0  0  0  0
    1.1387   -2.0486    0.0000 C   0  0  0  0  0  0  0  0  0  0  0  0
    0.5867   -2.6617    0.0000 O   0  0  0  0  0  0  0  0  0  0  0  0
    0.8416   -3.4463    0.0000 P   0  0  0  0  0  0  0  0  0  0  0  0
    1.0966   -4.2310    0.0000 O   0  0  0  0  0  0  0  0  0  0  0  0
    0.0570   -3.7013    0.0000 O   0  0  0  0  0  0  0  0  0  0  0  0
    1.6262   -3.1914    0.0000 O   0  0  0  0  0  0  0  0  0  0  0  0
    0.0992   -1.0091    0.0000 C   0  0  2  0  0  0  0  0  0  0  0  0
   -0.5683   -1.4940    0.0000 O   0  0  0  0  0  0  0  0  0  0  0  0
    0.0992   -0.1841    0.0000 C   0  0  1  0  0  0  0  0  0  0  0  0
   -0.5683    0.3009    0.0000 O   0  0  0  0  0  0  0  0  0  0  0  0
    2.6378    2.3479    0.0000 C   0  0  1  0  0  0  0  0  0  0  0  0
    2.6378    3.1729    0.0000 N   0  0  0  0  0  0  0  0  0  0  0  0
  1  2  1  0  0  0  0
  2  3  1  0  0  0  0
  3  4  2  0  0  0  0
  4  5  1  0  0  0  0
  5  6  2  0  0  0  0
  6  7  1  0  0  0  0
  7  8  2  0  0  0  0
  8  9  1  0  0  0  0
  5  9  1  0  0  0  0
 10  9  1  6  0  0  0
 10 11  1  0  0  0  0
 11 12  1  0  0  0  0
 12 13  1  1  0  0  0
 13 14  1  0  0  0  0
 14 15  1  0  0  0  0
 15 16  1  0  0  0  0
 15 17  1  0  0  0  0
 15 18  2  0  0  0  0
 12 19  1  0  0  0  0
 19 20  1  6  0  0  0
 19 21  1  0  0  0  0
 10 21  1  0  0  0  0
 21 22  1  1  0  0  0
  6 23  1  0  0  0  0
  2 23  1  0  0  0  0
 23 24  1  1  0  0  0
M  END
> <DRUGBANK_ID>
DB03318

> <DRUG_GROUPS>
experimental

> <GENERIC_NAME>
6-Hydro-1-Methyladenosine-5'-Monophosphate

> <CHEMICAL_FORMULA>
C11H18N5O7P

> <MOLECULAR_WEIGHT>
363.2637

> <EXACT_MASS>
363.094384467

> <IUPAC_NAME>
{[(2S,3R,4R,5R)-5-[(6S)-6-amino-1-methyl-6,9-dihydro-1H-purin-9-yl]-3,4-dihydroxyoxolan-2-yl]methoxy}phosphonic acid

> <IUPAC_TRADITIONAL_NAME>
[(2S,3R,4R,5R)-5-[(6S)-6-amino-1-methyl-6H-purin-9-yl]-3,4-dihydroxyoxolan-2-yl]methoxyphosphonic acid

> <INCHI_IDENTIFIER>
InChI=1S/C11H18N5O7P/c1-15-3-14-10-6(9(15)12)13-4-16(10)11-8(18)7(17)5(23-11)2-22-24(19,20)21/h3-5,7-9,11,17-18H,2,12H2,1H3,(H2,19,20,21)/t5-,7-,8+,9-,11+/m0/s1

> <INCHI_KEY>
InChIKey=PXQPOBTUNIUPSD-MUWJYTSDSA-N

> <SMILES>
CN1C=NC2=C(N=CN2[C@@H]2O[C@@H](COP(O)(O)=O)[C@H](O)[C@H]2O)[C@H]1N

> <JCHEM_ACCEPTOR_COUNT>
10

> <JCHEM_DONOR_COUNT>
5

> <JCHEM_ACIDIC_PKA>
1.45

> <JCHEM_BASIC_PKA>
7.13

> <JCHEM_PHYSIOLOGICAL_CHARGE>
-1

> <ALOGPS_LOGP>
-2.3

> <JCHEM_LOGP>
-2.7

> <ALOGPS_LOGS>
-2

> <JCHEM_POLARIZABILITY>
32.5

> <JCHEM_POLAR_SURFACE_AREA>
175.89

> <JCHEM_REFRACTIVITY>
79.48

> <JCHEM_ROTATABLE_BOND_COUNT>
4

> <ALOGPS_SOLUBILITY>
3.97e+00 g/l __ 

$$$$
