
  Mrv0541 02231216552D          

 16 15  0  0  1  0            999 V2000
    7.2849    3.3809    0.0000 N   0  0  0  0  0  0  0  0  0  0  0  0
    7.2849    2.5559    0.0000 C   0  0  1  0  0  0  0  0  0  0  0  0
    6.5704    2.1434    0.0000 C   0  0  0  0  0  0  0  0  0  0  0  0
    5.8559    2.5559    0.0000 C   0  0  0  0  0  0  0  0  0  0  0  0
    5.1414    2.1434    0.0000 C   0  0  0  0  0  0  0  0  0  0  0  0
    5.1414    1.3184    0.0000 O   0  0  0  0  0  0  0  0  0  0  0  0
    4.4270    2.5559    0.0000 N   0  0  0  0  0  0  0  0  0  0  0  0
    3.7125    2.1434    0.0000 C   0  0  2  0  0  0  0  0  0  0  0  0
    2.9980    2.5559    0.0000 C   0  0  0  0  0  0  0  0  0  0  0  0
    2.2836    2.1434    0.0000 S   0  0  0  0  0  0  0  0  0  0  0  0
    3.7125    1.3184    0.0000 C   0  0  0  0  0  0  0  0  0  0  0  0
    4.4270    0.9059    0.0000 O   0  0  0  0  0  0  0  0  0  0  0  0
    2.9980    0.9059    0.0000 O   0  0  0  0  0  0  0  0  0  0  0  0
    7.9993    2.1434    0.0000 C   0  0  0  0  0  0  0  0  0  0  0  0
    8.7138    2.5559    0.0000 O   0  0  0  0  0  0  0  0  0  0  0  0
    7.9993    1.3184    0.0000 O   0  0  0  0  0  0  0  0  0  0  0  0
  2  1  1  6  0  0  0
  2  3  1  0  0  0  0
  3  4  1  0  0  0  0
  4  5  1  0  0  0  0
  5  6  2  0  0  0  0
  5  7  1  0  0  0  0
  8  7  1  1  0  0  0
  8  9  1  0  0  0  0
  9 10  1  0  0  0  0
  8 11  1  0  0  0  0
 11 12  1  0  0  0  0
 11 13  2  0  0  0  0
  2 14  1  0  0  0  0
 14 15  1  0  0  0  0
 14 16  2  0  0  0  0
M  END
> <DRUGBANK_ID>
DB03408

> <DRUG_GROUPS>
experimental

> <GENERIC_NAME>
Gamma-Glutamylcysteine

> <CHEMICAL_FORMULA>
C8H14N2O5S

> <MOLECULAR_WEIGHT>
250.272

> <EXACT_MASS>
250.062342258

> <IUPAC_NAME>
(2S)-2-amino-4-{[(1S)-1-carboxy-2-sulfanylethyl]carbamoyl}butanoic acid

> <IUPAC_TRADITIONAL_NAME>
gamma-glutamylcysteine

> <INCHI_IDENTIFIER>
InChI=1S/C8H14N2O5S/c9-4(7(12)13)1-2-6(11)10-5(3-16)8(14)15/h4-5,16H,1-3,9H2,(H,10,11)(H,12,13)(H,14,15)/t4-,5+/m0/s1

> <INCHI_KEY>
InChIKey=RITKHVBHSGLULN-CRCLSJGQSA-N

> <SMILES>
N[C@@H](CCC(=O)N[C@H](CS)C(O)=O)C(O)=O

> <JCHEM_ACCEPTOR_COUNT>
6

> <JCHEM_DONOR_COUNT>
5

> <JCHEM_ACIDIC_PKA>
1.91

> <JCHEM_BASIC_PKA>
9.24

> <JCHEM_PHYSIOLOGICAL_CHARGE>
-1

> <ALOGPS_LOGP>
-2.5

> <JCHEM_LOGP>
-3.8

> <ALOGPS_LOGS>
-2

> <JCHEM_POLARIZABILITY>
23.69

> <JCHEM_POLAR_SURFACE_AREA>
129.72

> <JCHEM_REFRACTIVITY>
56.31

> <JCHEM_ROTATABLE_BOND_COUNT>
7

> <ALOGPS_SOLUBILITY>
2.62e+00 g/l __ 

$$$$
