
  Mrv0541 02231216462D          

 13 12  0  0  1  0            999 V2000
    3.9039    0.6039    0.0000 O   0  0  0  0  0  0  0  0  0  0  0  0
    3.9039    1.4289    0.0000 C   0  0  2  0  0  0  0  0  0  0  0  0
    3.1895    1.8414    0.0000 C   0  0  0  0  0  0  0  0  0  0  0  0
    2.4750    1.4289    0.0000 C   0  0  1  0  0  0  0  0  0  0  0  0
    2.4750    0.6039    0.0000 O   0  0  0  0  0  0  0  0  0  0  0  0
    1.7605    1.8414    0.0000 C   0  0  0  0  0  0  0  0  0  0  0  0
    1.0461    1.4289    0.0000 O   0  5  0  0  0  0  0  0  0  0  0  0
    1.7605    2.6664    0.0000 O   0  0  0  0  0  0  0  0  0  0  0  0
    4.6184    1.8414    0.0000 C   0  0  1  0  0  0  0  0  0  0  0  0
    4.6184    2.6664    0.0000 O   0  0  0  0  0  0  0  0  0  0  0  0
    5.3329    1.4289    0.0000 C   0  0  0  0  0  0  0  0  0  0  0  0
    6.0474    1.8414    0.0000 O   0  5  0  0  0  0  0  0  0  0  0  0
    5.3329    0.6039    0.0000 O   0  0  0  0  0  0  0  0  0  0  0  0
  2  1  1  6  0  0  0
  2  3  1  0  0  0  0
  3  4  1  0  0  0  0
  4  5  1  1  0  0  0
  4  6  1  0  0  0  0
  6  7  1  0  0  0  0
  6  8  2  0  0  0  0
  2  9  1  0  0  0  0
  9 10  1  1  0  0  0
  9 11  1  0  0  0  0
 11 12  1  0  0  0  0
 11 13  2  0  0  0  0
M  END
> <DRUGBANK_ID>
DB03212

> <DRUG_GROUPS>
experimental

> <GENERIC_NAME>
4-Deoxyglucarate

> <CHEMICAL_FORMULA>
C6H8O7

> <MOLECULAR_WEIGHT>
192.1235

> <EXACT_MASS>
192.02700261

> <IUPAC_NAME>
(2R,3R,5R)-2,3,5-trihydroxyhexanedioate

> <IUPAC_TRADITIONAL_NAME>
4-deoxyglucarate

> <INCHI_IDENTIFIER>
InChI=1S/C6H10O7/c7-2(4(9)6(12)13)1-3(8)5(10)11/h2-4,7-9H,1H2,(H,10,11)(H,12,13)/p-2/t2-,3-,4-/m1/s1

> <INCHI_KEY>
InChIKey=WZLURCXZSPTANB-BXXZVTAOSA-L

> <SMILES>
O[C@H](C[C@@H](O)C([O-])=O)[C@@H](O)C([O-])=O

> <JCHEM_ACCEPTOR_COUNT>
7

> <JCHEM_DONOR_COUNT>
3

> <JCHEM_ACIDIC_PKA>
2.96

> <JCHEM_BASIC_PKA>
-3.3

> <JCHEM_PHYSIOLOGICAL_CHARGE>
-2

> <ALOGPS_LOGP>
-1.4

> <JCHEM_LOGP>
-2.4

> <ALOGPS_LOGS>
0.39

> <JCHEM_POLARIZABILITY>
15.47

> <JCHEM_POLAR_SURFACE_AREA>
140.95

> <JCHEM_REFRACTIVITY>
58.72

> <JCHEM_ROTATABLE_BOND_COUNT>
5

> <ALOGPS_SOLUBILITY>
5.60e+02 g/l __ 

$$$$
