
  Mrv0541 02231216562D          

 11 11  0  0  1  0            999 V2000
    2.1434    1.2375    0.0000 C   0  0  0  0  0  0  0  0  0  0  0  0
    1.4289    0.8250    0.0000 C   0  0  2  0  0  0  0  0  0  0  0  0
    1.4289    0.0000    0.0000 O   0  0  0  0  0  0  0  0  0  0  0  0
    0.7145   -0.4125    0.0000 C   0  0  2  0  0  0  0  0  0  0  0  0
    0.7145   -1.2375    0.0000 O   0  0  0  0  0  0  0  0  0  0  0  0
    0.0000    0.0000    0.0000 C   0  0  1  0  0  0  0  0  0  0  0  0
   -0.7145   -0.4125    0.0000 O   0  0  0  0  0  0  0  0  0  0  0  0
    0.0000    0.8250    0.0000 C   0  0  2  0  0  0  0  0  0  0  0  0
   -0.7145    1.2375    0.0000 O   0  0  0  0  0  0  0  0  0  0  0  0
    0.7145    1.2375    0.0000 C   0  0  1  0  0  0  0  0  0  0  0  0
    0.7145    2.0625    0.0000 N   0  0  0  0  0  0  0  0  0  0  0  0
  2  1  1  6  0  0  0
  2  3  1  0  0  0  0
  3  4  1  0  0  0  0
  4  5  1  6  0  0  0
  4  6  1  0  0  0  0
  6  7  1  1  0  0  0
  6  8  1  0  0  0  0
  8  9  1  6  0  0  0
  8 10  1  0  0  0  0
  2 10  1  0  0  0  0
 10 11  1  1  0  0  0
M  END
> <DRUGBANK_ID>
DB03439

> <DRUG_GROUPS>
experimental

> <GENERIC_NAME>
4,6-Dideoxy-4-Amino-Alpha-D-Glucose

> <CHEMICAL_FORMULA>
C6H13NO4

> <MOLECULAR_WEIGHT>
163.1717

> <EXACT_MASS>
163.084457909

> <IUPAC_NAME>
(2S,3S,4R,5R,6S)-5-amino-6-methyloxane-2,3,4-triol

> <IUPAC_TRADITIONAL_NAME>
(2S,3S,4R,5R,6S)-5-amino-6-methyloxane-2,3,4-triol

> <INCHI_IDENTIFIER>
InChI=1S/C6H13NO4/c1-2-3(7)4(8)5(9)6(10)11-2/h2-6,8-10H,7H2,1H3/t2-,3-,4+,5-,6-/m0/s1

> <INCHI_KEY>
InChIKey=RJKBJEZZABBYBA-QYESYBIKSA-N

> <SMILES>
C[C@@H]1O[C@H](O)[C@@H](O)[C@H](O)[C@H]1N

> <JCHEM_ACCEPTOR_COUNT>
5

> <JCHEM_DONOR_COUNT>
4

> <JCHEM_ACIDIC_PKA>
11.32

> <JCHEM_BASIC_PKA>
8.56

> <JCHEM_PHYSIOLOGICAL_CHARGE>
1

> <ALOGPS_LOGP>
-2.1

> <JCHEM_LOGP>
-2

> <ALOGPS_LOGS>
0.65

> <JCHEM_POLARIZABILITY>
15.76

> <JCHEM_POLAR_SURFACE_AREA>
95.94

> <JCHEM_REFRACTIVITY>
36.04

> <JCHEM_ROTATABLE_BOND_COUNT>
0

> <ALOGPS_SOLUBILITY>
7.22e+02 g/l __ 

$$$$
