
  Mrv0541 02231217002D          

 11 12  0  0  0  0            999 V2000
    4.0668    2.3479    0.0000 F    0  0  0  0  0  0  0  0  0  0  0  0
    3.3523    1.9354    0.0000 C    0  0  0  0  0  0  0  0  0  0  0  0
    3.3523    1.1104    0.0000 N    0  0  0  0  0  0  0  0  0  0  0  0
    2.6378    0.6979    0.0000 C    0  0  0  0  0  0  0  0  0  0  0  0
    2.6378   -0.1271    0.0000 Cl   0  0  0  0  0  0  0  0  0  0  0  0
    1.9233    1.1104    0.0000 C    0  0  0  0  0  0  0  0  0  0  0  0
    1.1387    0.8555    0.0000 N    0  0  0  0  0  0  0  0  0  0  0  0
    0.6538    1.5229    0.0000 C    0  0  0  0  0  0  0  0  0  0  0  0
    1.1387    2.1904    0.0000 N    0  0  0  0  0  0  0  0  0  0  0  0
    1.9233    1.9354    0.0000 C    0  0  0  0  0  0  0  0  0  0  0  0
    2.6378    2.3479    0.0000 N    0  0  0  0  0  0  0  0  0  0  0  0
  1  2  1  0  0  0  0
  2  3  4  0  0  0  0
  3  4  4  0  0  0  0
  4  5  1  0  0  0  0
  4  6  4  0  0  0  0
  6  7  4  0  0  0  0
  7  8  4  0  0  0  0
  8  9  4  0  0  0  0
  9 10  4  0  0  0  0
  6 10  4  0  0  0  0
 10 11  4  0  0  0  0
  2 11  4  0  0  0  0
M  END
> <DRUGBANK_ID>
DB03520

> <DRUG_GROUPS>
experimental

> <GENERIC_NAME>
6-Chloro-2-Fluoropurine

> <CHEMICAL_FORMULA>
C5HClFN4

> <MOLECULAR_WEIGHT>
171.54

> <EXACT_MASS>
170.987376964

> <IUPAC_NAME>
6-chloro-2-fluoropurine

> <IUPAC_TRADITIONAL_NAME>
6-chloro-2-fluoropurine

> <INCHI_IDENTIFIER>
InChI=1S/C5HClFN4/c6-3-2-4(9-1-8-2)11-5(7)10-3/h1H

> <INCHI_KEY>
InChIKey=QLDDUBUYKUFZGP-UHFFFAOYSA-N

> <SMILES>
Fc1nc(Cl)c2ncnc2n1

> <JCHEM_ACCEPTOR_COUNT>
4

> <JCHEM_DONOR_COUNT>
0

> <JCHEM_BASIC_PKA>
-2.8

> <JCHEM_PHYSIOLOGICAL_CHARGE>
0

> <ALOGPS_LOGP>
1.38

> <JCHEM_LOGP>
1.33

> <ALOGPS_LOGS>
-1.3

> <JCHEM_POLARIZABILITY>
12.88

> <JCHEM_POLAR_SURFACE_AREA>
51.56

> <JCHEM_REFRACTIVITY>
39.05

> <JCHEM_ROTATABLE_BOND_COUNT>
0

> <ALOGPS_SOLUBILITY>
8.18e+00 g/l __ 

$$$$
