HII
  Mrv0541 02231216382D          

 12 12  0  0  0  0            999 V2000
    0.8033   -1.5820    0.0000 C   0  0  0  0  0  0  0  0  0  0  0  0
    0.4678   -2.3357    0.0000 O   0  0  0  0  0  0  0  0  0  0  0  0
    0.3184   -0.9146    0.0000 C   0  0  1  0  0  0  0  0  0  0  0  0
   -0.5021   -1.0008    0.0000 C   0  0  0  0  0  0  0  0  0  0  0  0
    0.6540   -0.1609    0.0000 C   0  0  0  0  0  0  0  0  0  0  0  0
    0.1691    0.5065    0.0000 C   0  0  0  0  0  0  0  0  0  0  0  0
   -0.6559    0.5065    0.0000 C   0  0  0  0  0  0  0  0  0  0  0  0
   -0.9109    1.2912    0.0000 S   0  0  0  0  0  0  0  0  0  0  0  0
   -0.2434    1.7761    0.0000 C   0  0  0  0  0  0  0  0  0  0  0  0
    0.4240    1.2912    0.0000 N   0  0  0  0  0  0  0  0  0  0  0  0
   -0.2434    2.6011    0.0000 N   0  0  0  0  0  0  0  0  0  0  0  0
    0.0809   -1.4480    0.0000 H   0  0  0  0  0  0  0  0  0  0  0  0
  1  2  2  0  0  0  0
  1  3  1  0  0  0  0
  3  4  1  1  0  0  0
  3  5  1  0  0  0  0
  3 12  1  6  0  0  0
  5  6  1  0  0  0  0
  6  7  2  0  0  0  0
  6 10  1  0  0  0  0
  7  8  1  0  0  0  0
  8  9  1  0  0  0  0
  9 10  2  0  0  0  0
  9 11  1  0  0  0  0
M  END
> <DRUGBANK_ID>
DB03024

> <DRUG_GROUPS>
experimental

> <GENERIC_NAME>
2-Methyl-3-(2-Aminothiazolo)Propanal

> <CHEMICAL_FORMULA>
C7H10N2OS

> <MOLECULAR_WEIGHT>
170.232

> <EXACT_MASS>
170.051383642

> <IUPAC_NAME>
(2S)-3-(2-amino-1,3-thiazol-4-yl)-2-methylpropanal

> <IUPAC_TRADITIONAL_NAME>
(2S)-3-(2-amino-1,3-thiazol-4-yl)-2-methylpropanal

> <INCHI_IDENTIFIER>
InChI=1S/C7H10N2OS/c1-5(3-10)2-6-4-11-7(8)9-6/h3-5H,2H2,1H3,(H2,8,9)/t5-/m0/s1

> <INCHI_KEY>
InChIKey=KFMAJVLZSDMFBV-YFKPBYRVSA-N

> <SMILES>
[H][C@](C)(CC1=CSC(N)=N1)C=O

> <JCHEM_ACCEPTOR_COUNT>
3

> <JCHEM_DONOR_COUNT>
1

> <JCHEM_ACIDIC_PKA>
14.42

> <JCHEM_BASIC_PKA>
4.69

> <JCHEM_PHYSIOLOGICAL_CHARGE>
0

> <ALOGPS_LOGP>
1.19

> <JCHEM_LOGP>
0.83

> <ALOGPS_LOGS>
-1.9

> <JCHEM_POLARIZABILITY>
17.44

> <JCHEM_POLAR_SURFACE_AREA>
55.98

> <JCHEM_REFRACTIVITY>
44.57

> <JCHEM_ROTATABLE_BOND_COUNT>
3

> <ALOGPS_SOLUBILITY>
2.37e+00 g/l __ 

$$$$
