IOA
  Mrv0541 02231216382D          

 22 23  0  0  0  0            999 V2000
    0.7207   -0.5897    0.0000 C   0  0  0  0  0  0  0  0  0  0  0  0
    1.4352   -1.0022    0.0000 C   0  0  0  0  0  0  0  0  0  0  0  0
    1.4352   -1.8272    0.0000 C   0  0  0  0  0  0  0  0  0  0  0  0
    0.7207   -2.2397    0.0000 C   0  0  0  0  0  0  0  0  0  0  0  0
    0.0063   -1.8272    0.0000 C   0  0  0  0  0  0  0  0  0  0  0  0
    0.0063   -1.0022    0.0000 C   0  0  0  0  0  0  0  0  0  0  0  0
   -0.7082   -0.5897    0.0000 C   0  0  0  0  0  0  0  0  0  0  0  0
   -1.4227   -1.0022    0.0000 O   0  0  0  0  0  0  0  0  0  0  0  0
   -0.7082    0.2353    0.0000 N   0  0  0  0  0  0  0  0  0  0  0  0
   -1.4227    0.6478    0.0000 C   0  0  0  0  0  0  0  0  0  0  0  0
    2.1497   -2.2397    0.0000 S   0  0  0  0  0  0  0  0  0  0  0  0
    2.8641   -2.6522    0.0000 N   0  0  0  0  0  0  0  0  0  0  0  0
    2.5622   -1.5253    0.0000 O   0  0  0  0  0  0  0  0  0  0  0  0
    1.7372   -2.9542    0.0000 O   0  0  0  0  0  0  0  0  0  0  0  0
   -1.4227    1.4728    0.0000 C   0  0  0  0  0  0  0  0  0  0  0  0
   -2.1372    1.8853    0.0000 C   0  0  0  0  0  0  0  0  0  0  0  0
   -2.1372    2.7103    0.0000 C   0  0  0  0  0  0  0  0  0  0  0  0
   -1.4227    3.1228    0.0000 C   0  0  0  0  0  0  0  0  0  0  0  0
   -0.7082    2.7103    0.0000 C   0  0  0  0  0  0  0  0  0  0  0  0
   -0.7082    1.8853    0.0000 C   0  0  0  0  0  0  0  0  0  0  0  0
    0.0063    1.4728    0.0000 F   0  0  0  0  0  0  0  0  0  0  0  0
   -2.8516    3.1228    0.0000 F   0  0  0  0  0  0  0  0  0  0  0  0
  1  2  2  0  0  0  0
  1  6  1  0  0  0  0
  2  3  1  0  0  0  0
  3  4  2  0  0  0  0
  3 11  1  0  0  0  0
  4  5  1  0  0  0  0
  5  6  2  0  0  0  0
  6  7  1  0  0  0  0
  7  8  2  0  0  0  0
  7  9  1  0  0  0  0
  9 10  1  0  0  0  0
 10 15  1  0  0  0  0
 11 12  1  0  0  0  0
 11 13  2  0  0  0  0
 11 14  2  0  0  0  0
 15 16  2  0  0  0  0
 15 20  1  0  0  0  0
 16 17  1  0  0  0  0
 17 18  2  0  0  0  0
 17 22  1  0  0  0  0
 18 19  1  0  0  0  0
 19 20  2  0  0  0  0
 20 21  1  0  0  0  0
M  END
> <DRUGBANK_ID>
DB03039

> <DRUG_GROUPS>
experimental

> <GENERIC_NAME>
4-(Aminosulfonyl)-N-[(2,5-Difluorophenyl)Methyl]-Benzamide

> <CHEMICAL_FORMULA>
C14H12F2N2O3S

> <MOLECULAR_WEIGHT>
326.318

> <EXACT_MASS>
326.05366936

> <IUPAC_NAME>
N-[(2,5-difluorophenyl)methyl]-4-sulfamoylbenzamide

> <IUPAC_TRADITIONAL_NAME>
N-[(2,5-difluorophenyl)methyl]-4-sulfamoylbenzamide

> <INCHI_IDENTIFIER>
InChI=1S/C14H12F2N2O3S/c15-11-3-6-13(16)10(7-11)8-18-14(19)9-1-4-12(5-2-9)22(17,20)21/h1-7H,8H2,(H,18,19)(H2,17,20,21)

> <INCHI_KEY>
InChIKey=KEGUALXMKQVDIO-UHFFFAOYSA-N

> <SMILES>
NS(=O)(=O)C1=CC=C(C=C1)C(=O)NCC1=CC(F)=CC=C1F

> <JCHEM_ACCEPTOR_COUNT>
3

> <JCHEM_DONOR_COUNT>
2

> <JCHEM_ACIDIC_PKA>
9.95

> <JCHEM_BASIC_PKA>
-1.3

> <JCHEM_PHYSIOLOGICAL_CHARGE>
0

> <ALOGPS_LOGP>
2

> <JCHEM_LOGP>
1.66

> <ALOGPS_LOGS>
-4.2

> <JCHEM_POLARIZABILITY>
29.94

> <JCHEM_POLAR_SURFACE_AREA>
89.26

> <JCHEM_REFRACTIVITY>
77.24

> <JCHEM_ROTATABLE_BOND_COUNT>
4

> <ALOGPS_SOLUBILITY>
1.98e-02 g/l __ 

$$$$
