
  Mrv0541 02231216432D          

 43 47  0  0  1  0            999 V2000
   -0.8671    7.2710    0.0000 O   0  0  0  0  0  0  0  0  0  0  0  0
   -0.4024    6.5894    0.0000 C   0  0  2  0  0  0  0  0  0  0  0  0
    0.4134    6.7123    0.0000 C   0  0  0  0  0  0  0  0  0  0  0  0
    1.0181    6.1512    0.0000 N   0  0  0  0  0  0  0  0  0  0  0  0
    0.9565    5.3285    0.0000 N   0  0  0  0  0  0  0  0  0  0  0  0
    1.6710    4.9160    0.0000 C   0  0  0  0  0  0  0  0  0  0  0  0
    1.6710    4.0910    0.0000 C   0  0  0  0  0  0  0  0  0  0  0  0
    2.3854    3.6785    0.0000 C   0  0  0  0  0  0  0  0  0  0  0  0
    2.3854    2.8535    0.0000 C   0  0  0  0  0  0  0  0  0  0  0  0
    1.6710    2.4410    0.0000 C   0  0  0  0  0  0  0  0  0  0  0  0
    1.6710    1.6160    0.0000 O   0  0  0  0  0  0  0  0  0  0  0  0
    0.9565    2.8535    0.0000 C   0  0  0  0  0  0  0  0  0  0  0  0
    0.9565    3.6785    0.0000 C   0  0  0  0  0  0  0  0  0  0  0  0
    0.2748    4.8637    0.0000 C   0  0  0  0  0  0  0  0  0  0  0  0
    0.3978    4.0480    0.0000 O   0  0  0  0  0  0  0  0  0  0  0  0
   -0.5135    5.1069    0.0000 N   0  0  0  0  0  0  0  0  0  0  0  0
   -1.0746    4.5021    0.0000 C   0  0  0  0  0  0  0  0  0  0  0  0
   -1.8790    4.6857    0.0000 C   0  0  0  0  0  0  0  0  0  0  0  0
   -2.4401    4.0810    0.0000 C   0  0  0  0  0  0  0  0  0  0  0  0
   -3.2444    4.2645    0.0000 C   0  0  0  0  0  0  0  0  0  0  0  0
   -3.4876    5.0529    0.0000 C   0  0  0  0  0  0  0  0  0  0  0  0
   -4.2919    5.2365    0.0000 O   0  0  0  0  0  0  0  0  0  0  0  0
   -2.9264    5.6577    0.0000 C   0  0  0  0  0  0  0  0  0  0  0  0
   -2.1221    5.4741    0.0000 C   0  0  0  0  0  0  0  0  0  0  0  0
   -0.8149    5.8749    0.0000 C   0  0  2  0  0  0  0  0  0  0  0  0
   -1.6376    5.9365    0.0000 C   0  0  0  0  0  0  0  0  0  0  0  0
   -1.9956    6.6798    0.0000 C   0  0  0  0  0  0  0  0  0  0  0  0
   -2.8182    6.7415    0.0000 C   0  0  0  0  0  0  0  0  0  0  0  0
   -3.1762    7.4848    0.0000 C   0  0  0  0  0  0  0  0  0  0  0  0
   -2.7115    8.1664    0.0000 C   0  0  0  0  0  0  0  0  0  0  0  0
   -1.8888    8.1048    0.0000 C   0  0  0  0  0  0  0  0  0  0  0  0
   -1.5308    7.3615    0.0000 C   0  0  0  0  0  0  0  0  0  0  0  0
    1.7861    6.4526    0.0000 S   0  0  0  0  0  0  0  0  0  0  0  0
    2.0875    5.6846    0.0000 O   0  0  0  0  0  0  0  0  0  0  0  0
    1.4847    7.2205    0.0000 O   0  0  0  0  0  0  0  0  0  0  0  0
    2.5541    6.7540    0.0000 C   0  0  0  0  0  0  0  0  0  0  0  0
    2.6770    7.5698    0.0000 C   0  0  0  0  0  0  0  0  0  0  0  0
    3.4450    7.8712    0.0000 C   0  0  0  0  0  0  0  0  0  0  0  0
    4.0900    7.3568    0.0000 C   0  0  0  0  0  0  0  0  0  0  0  0
    3.9671    6.5410    0.0000 C   0  0  0  0  0  0  0  0  0  0  0  0
    3.1991    6.2396    0.0000 C   0  0  0  0  0  0  0  0  0  0  0  0
    4.6121    6.0266    0.0000 C   0  0  0  0  0  0  0  0  0  0  0  0
    5.2571    5.5123    0.0000 N   0  0  0  0  0  0  0  0  0  0  0  0
  2  1  1  6  0  0  0
  2  3  1  0  0  0  0
  3  4  1  0  0  0  0
  4  5  1  0  0  0  0
  5  6  1  0  0  0  0
  6  7  1  0  0  0  0
  7  8  2  0  0  0  0
  8  9  1  0  0  0  0
  9 10  2  0  0  0  0
 10 11  1  0  0  0  0
 10 12  1  0  0  0  0
 12 13  2  0  0  0  0
  7 13  1  0  0  0  0
  5 14  1  0  0  0  0
 14 15  2  0  0  0  0
 14 16  1  0  0  0  0
 16 17  1  0  0  0  0
 17 18  1  0  0  0  0
 18 19  2  0  0  0  0
 19 20  1  0  0  0  0
 20 21  2  0  0  0  0
 21 22  1  0  0  0  0
 21 23  1  0  0  0  0
 23 24  2  0  0  0  0
 18 24  1  0  0  0  0
 16 25  1  0  0  0  0
  2 25  1  0  0  0  0
 25 26  1  6  0  0  0
 26 27  1  0  0  0  0
 27 28  2  0  0  0  0
 28 29  1  0  0  0  0
 29 30  2  0  0  0  0
 30 31  1  0  0  0  0
 31 32  2  0  0  0  0
 27 32  1  0  0  0  0
  4 33  1  0  0  0  0
 33 34  2  0  0  0  0
 33 35  2  0  0  0  0
 33 36  1  0  0  0  0
 36 37  2  0  0  0  0
 37 38  1  0  0  0  0
 38 39  2  0  0  0  0
 39 40  1  0  0  0  0
 40 41  2  0  0  0  0
 36 41  1  0  0  0  0
 40 42  1  0  0  0  0
 42 43  3  0  0  0  0
M  END
> <DRUGBANK_ID>
DB03141

> <DRUG_GROUPS>
experimental

> <GENERIC_NAME>
3-({5-Benzyl-6-Hydroxy-2,4-Bis-(4-Hydroxy-Benzyl)-3-Oxo-[1,2,4]-Triazepane-1-Sulfonyl)-Benzonitrile

> <CHEMICAL_FORMULA>
C32H30N4O6S

> <MOLECULAR_WEIGHT>
598.669

> <EXACT_MASS>
598.188605402

> <IUPAC_NAME>
3-[(5R,6R)-5-benzyl-6-hydroxy-2,4-bis[(4-hydroxyphenyl)methyl]-3-oxo-1,2,4-triazepane-1-sulfonyl]benzonitrile

> <IUPAC_TRADITIONAL_NAME>
3-[(5R,6R)-5-benzyl-6-hydroxy-2,4-bis[(4-hydroxyphenyl)methyl]-3-oxo-1,2,4-triazepane-1-sulfonyl]benzonitrile

> <INCHI_IDENTIFIER>
InChI=1S/C32H30N4O6S/c33-19-26-7-4-8-29(17-26)43(41,42)36-22-31(39)30(18-23-5-2-1-3-6-23)34(20-24-9-13-27(37)14-10-24)32(40)35(36)21-25-11-15-28(38)16-12-25/h1-17,30-31,37-39H,18,20-22H2/t30-,31-/m1/s1

> <INCHI_KEY>
InChIKey=UYUWNNRWESUYOB-FIRIVFDPSA-N

> <SMILES>
O[C@@H]1CN(N(CC2=CC=C(O)C=C2)C(=O)N(CC2=CC=C(O)C=C2)[C@@H]1CC1=CC=CC=C1)S(=O)(=O)C1=CC=CC(=C1)C#N

> <JCHEM_ACCEPTOR_COUNT>
7

> <JCHEM_DONOR_COUNT>
3

> <JCHEM_ACIDIC_PKA>
9.19

> <JCHEM_BASIC_PKA>
-3.2

> <JCHEM_PHYSIOLOGICAL_CHARGE>
0

> <ALOGPS_LOGP>
3.57

> <JCHEM_LOGP>
4.52

> <ALOGPS_LOGS>
-4.6

> <JCHEM_POLARIZABILITY>
61.2

> <JCHEM_POLAR_SURFACE_AREA>
145.41

> <JCHEM_REFRACTIVITY>
161.29

> <JCHEM_ROTATABLE_BOND_COUNT>
7

> <ALOGPS_SOLUBILITY>
1.41e-02 g/l __ 

$$$$
