AHC
  Mrv0541 02231216462D          

 12 12  0  0  0  0            999 V2000
    0.8281    1.1296    0.0000 C   0  0  0  0  0  0  0  0  0  0  0  0
    1.5426    1.5421    0.0000 C   0  0  0  0  0  0  0  0  0  0  0  0
    1.5426    2.3671    0.0000 O   0  0  0  0  0  0  0  0  0  0  0  0
    2.2570    1.1296    0.0000 O   0  0  0  0  0  0  0  0  0  0  0  0
    0.8281    0.3046    0.0000 C   0  0  0  0  0  0  0  0  0  0  0  0
    0.1136   -0.1079    0.0000 C   0  0  0  0  0  0  0  0  0  0  0  0
    0.1136   -0.9329    0.0000 C   0  0  0  0  0  0  0  0  0  0  0  0
   -0.6008    0.3046    0.0000 C   0  0  0  0  0  0  0  0  0  0  0  0
   -0.6008   -1.3454    0.0000 C   0  0  0  0  0  0  0  0  0  0  0  0
   -1.3153   -0.1079    0.0000 C   0  0  0  0  0  0  0  0  0  0  0  0
   -1.3153   -0.9329    0.0000 C   0  0  0  0  0  0  0  0  0  0  0  0
   -2.0298   -1.3454    0.0000 N   0  0  0  0  0  0  0  0  0  0  0  0
  1  2  1  0  0  0  0
  1  5  1  0  0  0  0
  2  3  2  0  0  0  0
  2  4  1  0  0  0  0
  5  6  1  0  0  0  0
  6  7  2  0  0  0  0
  6  8  1  0  0  0  0
  7  9  1  0  0  0  0
  8 10  2  0  0  0  0
  9 11  2  0  0  0  0
 10 11  1  0  0  0  0
 11 12  1  0  0  0  0
M  END
> <DRUGBANK_ID>
DB03210

> <DRUG_GROUPS>
experimental

> <GENERIC_NAME>
4-Aminohydrocinnamic Acid

> <CHEMICAL_FORMULA>
C9H11NO2

> <MOLECULAR_WEIGHT>
165.1891

> <EXACT_MASS>
165.078978601

> <IUPAC_NAME>
3-(4-aminophenyl)propanoic acid

> <IUPAC_TRADITIONAL_NAME>
4-aminohydrocinnamic acid

> <INCHI_IDENTIFIER>
InChI=1S/C9H11NO2/c10-8-4-1-7(2-5-8)3-6-9(11)12/h1-2,4-5H,3,6,10H2,(H,11,12)

> <INCHI_KEY>
InChIKey=WXOHKMNWMKZMND-UHFFFAOYSA-N

> <SMILES>
NC1=CC=C(CCC(O)=O)C=C1

> <JCHEM_ACCEPTOR_COUNT>
3

> <JCHEM_DONOR_COUNT>
2

> <JCHEM_ACIDIC_PKA>
3.61

> <JCHEM_BASIC_PKA>
5.5

> <JCHEM_PHYSIOLOGICAL_CHARGE>
-1

> <ALOGPS_LOGP>
1.18

> <JCHEM_LOGP>
0.44

> <ALOGPS_LOGS>
-1.9

> <JCHEM_POLARIZABILITY>
17.46

> <JCHEM_POLAR_SURFACE_AREA>
63.32

> <JCHEM_REFRACTIVITY>
46.67

> <JCHEM_ROTATABLE_BOND_COUNT>
3

> <ALOGPS_SOLUBILITY>
2.04e+00 g/l __ 

$$$$
