
  Mrv0541 02231216452D          

 10 11  0  0  0  0            999 V2000
    2.7845    0.6979    0.0000 C   0  0  0  0  0  0  0  0  0  0  0  0
    2.0701    1.1104    0.0000 C   0  0  0  0  0  0  0  0  0  0  0  0
    1.3556    0.6979    0.0000 C   0  0  0  0  0  0  0  0  0  0  0  0
    0.6411    1.1104    0.0000 C   0  0  0  0  0  0  0  0  0  0  0  0
    0.6411    1.9354    0.0000 C   0  0  0  0  0  0  0  0  0  0  0  0
    1.3556    2.3479    0.0000 C   0  0  0  0  0  0  0  0  0  0  0  0
    2.0701    1.9354    0.0000 C   0  0  0  0  0  0  0  0  0  0  0  0
   -0.1435    2.1904    0.0000 N   0  0  0  0  0  0  0  0  0  0  0  0
   -0.6284    1.5229    0.0000 C   0  0  0  0  0  0  0  0  0  0  0  0
   -0.1435    0.8555    0.0000 N   0  0  0  0  0  0  0  0  0  0  0  0
  1  2  1  0  0  0  0
  2  3  2  0  0  0  0
  3  4  1  0  0  0  0
  4  5  2  0  0  0  0
  5  6  1  0  0  0  0
  6  7  2  0  0  0  0
  2  7  1  0  0  0  0
  5  8  1  0  0  0  0
  8  9  2  0  0  0  0
  9 10  1  0  0  0  0
  4 10  1  0  0  0  0
M  END
> <DRUGBANK_ID>
DB03177

> <DRUG_GROUPS>
experimental

> <GENERIC_NAME>
5-methylbenzimidazole

> <SYNONYMS>


> <CHEMICAL_FORMULA>
C8H8N2

> <MOLECULAR_WEIGHT>
132.1625

> <EXACT_MASS>
132.068748266

> <IUPAC_NAME>
6-methyl-1H-1,3-benzodiazole

> <IUPAC_TRADITIONAL_NAME>
5-methylbenzimidazole

> <INCHI_IDENTIFIER>
InChI=1S/C8H8N2/c1-6-2-3-7-8(4-6)10-5-9-7/h2-5H,1H3,(H,9,10)

> <INCHI_KEY>
InChIKey=RWXZXCZBMQPOBF-UHFFFAOYSA-N

> <SMILES>
CC1=CC2=C(C=C1)N=CN2

> <JCHEM_ACCEPTOR_COUNT>
1

> <JCHEM_DONOR_COUNT>
1

> <JCHEM_ACIDIC_PKA>
12.46

> <JCHEM_BASIC_PKA>
6

> <JCHEM_PHYSIOLOGICAL_CHARGE>
0

> <ALOGPS_LOGP>
1.82

> <JCHEM_LOGP>
1.77

> <ALOGPS_LOGS>
-1.3

> <JCHEM_POLARIZABILITY>
14.4

> <JCHEM_POLAR_SURFACE_AREA>
28.68

> <JCHEM_REFRACTIVITY>
40.01

> <JCHEM_ROTATABLE_BOND_COUNT>
0

> <ALOGPS_SOLUBILITY>
6.80e+00 g/l __ 

$$$$
