
  Mrv0541 02231216522D          

 15 14  0  0  1  0            999 V2000
    7.5550    2.5091    0.0000 C   0  0  0  0  0  0  0  0  0  0  0  0
    7.7109    1.6990    0.0000 C   0  0  1  0  0  0  0  0  0  0  0  0
    7.0873    1.1589    0.0000 C   0  0  0  0  0  0  0  0  0  0  0  0
    6.3077    1.4289    0.0000 P   0  0  1  0  0  0  0  0  0  0  0  0
    6.0377    0.6494    0.0000 O   0  0  0  0  0  0  0  0  0  0  0  0
    6.5778    2.2085    0.0000 O   0  0  0  0  0  0  0  0  0  0  0  0
    5.5282    1.6990    0.0000 C   0  0  2  0  0  0  0  0  0  0  0  0
    5.3723    2.5091    0.0000 N   0  0  0  0  0  0  0  0  0  0  0  0
    4.9046    1.1589    0.0000 C   0  0  0  0  0  0  0  0  0  0  0  0
    4.1250    1.4289    0.0000 C   0  0  0  0  0  0  0  0  0  0  0  0
    3.5014    0.8889    0.0000 O   0  0  0  0  0  0  0  0  0  0  0  0
    3.9691    2.2391    0.0000 O   0  0  0  0  0  0  0  0  0  0  0  0
    8.4905    1.4289    0.0000 C   0  0  0  0  0  0  0  0  0  0  0  0
    9.1141    1.9690    0.0000 O   0  0  0  0  0  0  0  0  0  0  0  0
    8.6464    0.6188    0.0000 O   0  0  0  0  0  0  0  0  0  0  0  0
  2  1  1  6  0  0  0
  2  3  1  0  0  0  0
  4  3  1  6  0  0  0
  4  5  1  1  0  0  0
  4  6  2  0  0  0  0
  4  7  1  0  0  0  0
  7  8  1  1  0  0  0
  7  9  1  0  0  0  0
  9 10  1  0  0  0  0
 10 11  1  0  0  0  0
 10 12  2  0  0  0  0
  2 13  1  0  0  0  0
 13 14  1  0  0  0  0
 13 15  2  0  0  0  0
M  END
> <DRUGBANK_ID>
DB03340

> <DRUG_GROUPS>
experimental

> <GENERIC_NAME>
3-[(1-Amino-2-Carboxy-Ethyl)-Hydroxy-Phosphinoyl]-2-Methyl-Propionic Acid

> <CHEMICAL_FORMULA>
C7H14NO6P

> <MOLECULAR_WEIGHT>
239.1629

> <EXACT_MASS>
239.055873697

> <IUPAC_NAME>
(2R)-3-{[(1S)-1-amino-2-carboxyethyl](hydroxy)phosphoryl}-2-methylpropanoic acid

> <IUPAC_TRADITIONAL_NAME>
(2R)-3-[(1S)-1-amino-2-carboxyethyl(hydroxy)phosphoryl]-2-methylpropanoic acid

> <INCHI_IDENTIFIER>
InChI=1S/C7H14NO6P/c1-4(7(11)12)3-15(13,14)5(8)2-6(9)10/h4-5H,2-3,8H2,1H3,(H,9,10)(H,11,12)(H,13,14)/t4-,5-/m0/s1

> <INCHI_KEY>
InChIKey=NJOTXUMMTTYQMQ-WHFBIAKZSA-N

> <SMILES>
C[C@@H](C[P@@](O)(=O)[C@H](N)CC(O)=O)C(O)=O

> <JCHEM_ACCEPTOR_COUNT>
7

> <JCHEM_DONOR_COUNT>
4

> <JCHEM_ACIDIC_PKA>
-0.07

> <JCHEM_BASIC_PKA>
10.01

> <JCHEM_PHYSIOLOGICAL_CHARGE>
-2

> <ALOGPS_LOGP>
-2.4

> <JCHEM_LOGP>
-2.6

> <ALOGPS_LOGS>
-0.92

> <JCHEM_POLARIZABILITY>
20.52

> <JCHEM_POLAR_SURFACE_AREA>
137.92

> <JCHEM_REFRACTIVITY>
49.69

> <JCHEM_ROTATABLE_BOND_COUNT>
6

> <ALOGPS_SOLUBILITY>
2.90e+01 g/l __ 

$$$$
