
  Mrv0541 02231217112D          

 12 11  0  0  1  0            999 V2000
    4.6184    2.6664    0.0000 N   0  0  0  0  0  0  0  0  0  0  0  0
    4.6184    1.8414    0.0000 C   0  0  1  0  0  0  0  0  0  0  0  0
    3.9039    1.4289    0.0000 C   0  0  0  0  0  0  0  0  0  0  0  0
    3.1895    1.8414    0.0000 C   0  0  0  0  0  0  0  0  0  0  0  0
    2.4750    1.4289    0.0000 S   0  0  0  0  0  0  0  0  0  0  0  0
    1.7605    1.8414    0.0000 C   0  0  0  0  0  0  0  0  0  0  0  0
    1.0461    2.2539    0.0000 F   0  0  0  0  0  0  0  0  0  0  0  0
    1.3480    1.1270    0.0000 F   0  0  0  0  0  0  0  0  0  0  0  0
    2.1730    2.5559    0.0000 F   0  0  0  0  0  0  0  0  0  0  0  0
    5.3329    1.4289    0.0000 C   0  0  0  0  0  0  0  0  0  0  0  0
    6.0474    1.8414    0.0000 O   0  0  0  0  0  0  0  0  0  0  0  0
    5.3329    0.6039    0.0000 O   0  0  0  0  0  0  0  0  0  0  0  0
  2  1  1  6  0  0  0
  2  3  1  0  0  0  0
  3  4  1  0  0  0  0
  4  5  1  0  0  0  0
  5  6  1  0  0  0  0
  6  7  1  0  0  0  0
  6  8  1  0  0  0  0
  6  9  1  0  0  0  0
  2 10  1  0  0  0  0
 10 11  1  0  0  0  0
 10 12  2  0  0  0  0
M  END
> <DRUGBANK_ID>
DB03799

> <DRUG_GROUPS>
experimental

> <GENERIC_NAME>
Trifluoromethionine

> <CHEMICAL_FORMULA>
C5H8F3NO2S

> <MOLECULAR_WEIGHT>
203.183

> <EXACT_MASS>
203.02278381

> <IUPAC_NAME>
(2S)-2-amino-4-[(trifluoromethyl)sulfanyl]butanoic acid

> <IUPAC_TRADITIONAL_NAME>
trifluoromethionine

> <INCHI_IDENTIFIER>
InChI=1S/C5H8F3NO2S/c6-5(7,8)12-2-1-3(9)4(10)11/h3H,1-2,9H2,(H,10,11)/t3-/m0/s1

> <INCHI_KEY>
InChIKey=YLJLTSVBCXYTQK-VKHMYHEASA-N

> <SMILES>
N[C@@H](CCSC(F)(F)F)C(O)=O

> <JCHEM_ACCEPTOR_COUNT>
3

> <JCHEM_DONOR_COUNT>
2

> <JCHEM_ACIDIC_PKA>
1.59

> <JCHEM_BASIC_PKA>
9.5

> <JCHEM_PHYSIOLOGICAL_CHARGE>
0

> <ALOGPS_LOGP>
-1.9

> <JCHEM_LOGP>
-0.85

> <ALOGPS_LOGS>
-1.2

> <JCHEM_POLARIZABILITY>
15.85

> <JCHEM_POLAR_SURFACE_AREA>
63.32

> <JCHEM_REFRACTIVITY>
37.81

> <JCHEM_ROTATABLE_BOND_COUNT>
5

> <ALOGPS_SOLUBILITY>
1.28e+01 g/l __ 

$$$$
