
  Mrv0541 02231216452D          

 32 33  0  0  1  0            999 V2000
    4.4913   -8.0240    0.0000 C   0  0  0  0  0  0  0  0  0  0  0  0
    5.2058   -8.4365    0.0000 C   0  0  0  0  0  0  0  0  0  0  0  0
    5.9203   -8.0240    0.0000 C   0  0  0  0  0  0  0  0  0  0  0  0
    6.6348   -8.4365    0.0000 C   0  0  0  0  0  0  0  0  0  0  0  0
    7.3492   -8.0240    0.0000 C   0  0  0  0  0  0  0  0  0  0  0  0
    8.0637   -8.4365    0.0000 C   0  0  0  0  0  0  0  0  0  0  0  0
    8.7782   -8.0240    0.0000 C   0  0  0  0  0  0  0  0  0  0  0  0
    9.4926   -8.4365    0.0000 C   0  0  0  0  0  0  0  0  0  0  0  0
    9.4926   -9.2615    0.0000 O   0  0  0  0  0  0  0  0  0  0  0  0
   10.2071   -8.0240    0.0000 O   0  0  0  0  0  0  0  0  0  0  0  0
   10.9216   -8.4365    0.0000 C   0  0  0  0  0  0  0  0  0  0  0  0
   11.6361   -8.0240    0.0000 C   0  0  2  0  0  0  0  0  0  0  0  0
   12.3897   -8.3595    0.0000 O   0  0  0  0  0  0  0  0  0  0  0  0
   12.9418   -7.7464    0.0000 C   0  0  1  0  0  0  0  0  0  0  0  0
   13.4938   -8.3595    0.0000 C   0  0  0  0  0  0  0  0  0  0  0  0
   13.2389   -9.1442    0.0000 O   0  0  0  0  0  0  0  0  0  0  0  0
   13.6092   -7.2615    0.0000 O   0  0  0  0  0  0  0  0  0  0  0  0
   14.3629   -7.5971    0.0000 C   0  0  1  0  0  0  0  0  0  0  0  0
   15.0303   -7.1122    0.0000 O   0  0  0  0  0  0  0  0  0  0  0  0
   15.7840   -7.4477    0.0000 C   0  0  1  0  0  0  0  0  0  0  0  0
   16.4514   -6.9628    0.0000 C   0  0  0  0  0  0  0  0  0  0  0  0
   16.3652   -6.1423    0.0000 O   0  0  0  0  0  0  0  0  0  0  0  0
   15.8702   -8.2682    0.0000 C   0  0  2  0  0  0  0  0  0  0  0  0
   16.6239   -8.6037    0.0000 O   0  0  0  0  0  0  0  0  0  0  0  0
   15.2028   -8.7531    0.0000 C   0  0  1  0  0  0  0  0  0  0  0  0
   15.2890   -9.5736    0.0000 O   0  0  0  0  0  0  0  0  0  0  0  0
   14.4491   -8.4176    0.0000 C   0  0  2  0  0  0  0  0  0  0  0  0
   13.7817   -8.9025    0.0000 O   0  0  0  0  0  0  0  0  0  0  0  0
   12.5293   -7.0320    0.0000 C   0  0  2  0  0  0  0  0  0  0  0  0
   12.8648   -6.2783    0.0000 O   0  0  0  0  0  0  0  0  0  0  0  0
   11.7223   -7.2035    0.0000 C   0  0  1  0  0  0  0  0  0  0  0  0
   11.1092   -6.6515    0.0000 O   0  0  0  0  0  0  0  0  0  0  0  0
  1  2  1  0  0  0  0
  2  3  1  0  0  0  0
  3  4  1  0  0  0  0
  4  5  1  0  0  0  0
  5  6  1  0  0  0  0
  6  7  1  0  0  0  0
  7  8  1  0  0  0  0
  8  9  2  0  0  0  0
  8 10  1  0  0  0  0
 10 11  1  0  0  0  0
 12 11  1  1  0  0  0
 12 13  1  0  0  0  0
 13 14  1  0  0  0  0
 14 15  1  1  0  0  0
 15 16  1  0  0  0  0
 14 17  1  6  0  0  0
 18 17  1  1  0  0  0
 18 19  1  0  0  0  0
 19 20  1  0  0  0  0
 20 21  1  1  0  0  0
 21 22  1  0  0  0  0
 20 23  1  0  0  0  0
 23 24  1  6  0  0  0
 23 25  1  0  0  0  0
 25 26  1  1  0  0  0
 25 27  1  0  0  0  0
 18 27  1  0  0  0  0
 27 28  1  6  0  0  0
 14 29  1  0  0  0  0
 29 30  1  1  0  0  0
 29 31  1  0  0  0  0
 12 31  1  0  0  0  0
 31 32  1  6  0  0  0
M  END
> <DRUGBANK_ID>
DB03190

> <DRUG_GROUPS>
experimental

> <GENERIC_NAME>
N-Octanoyl-B-D-Fructofuranosyl-a-D-Glucopyranoside,Sucrose Monocaproylate

> <CHEMICAL_FORMULA>
C20H36O12

> <MOLECULAR_WEIGHT>
468.4926

> <EXACT_MASS>
468.220676616

> <IUPAC_NAME>
[(2S,3R,4R,5S)-3,4-dihydroxy-5-(hydroxymethyl)-5-{[(2R,3S,4R,5R,6S)-3,4,5-trihydroxy-6-(hydroxymethyl)oxan-2-yl]oxy}oxolan-2-yl]methyl octanoate

> <IUPAC_TRADITIONAL_NAME>
[(2S,3R,4R,5S)-3,4-dihydroxy-5-(hydroxymethyl)-5-{[(2R,3S,4R,5R,6S)-3,4,5-trihydroxy-6-(hydroxymethyl)oxan-2-yl]oxy}oxolan-2-yl]methyl octanoate

> <INCHI_IDENTIFIER>
InChI=1S/C20H36O12/c1-2-3-4-5-6-7-13(23)29-9-12-15(25)18(28)20(10-22,31-12)32-19-17(27)16(26)14(24)11(8-21)30-19/h11-12,14-19,21-22,24-28H,2-10H2,1H3/t11-,12-,14-,15-,16+,17-,18+,19+,20-/m0/s1

> <INCHI_KEY>
InChIKey=AWSYOWHJNGZJGU-WPZSKCEQSA-N

> <SMILES>
CCCCCCCC(=O)OC[C@@H]1O[C@@](CO)(O[C@H]2O[C@@H](CO)[C@H](O)[C@@H](O)[C@@H]2O)[C@H](O)[C@H]1O

> <JCHEM_ACCEPTOR_COUNT>
11

> <JCHEM_DONOR_COUNT>
7

> <JCHEM_ACIDIC_PKA>
11.84

> <JCHEM_BASIC_PKA>
-3

> <JCHEM_PHYSIOLOGICAL_CHARGE>
0

> <ALOGPS_LOGP>
-0.66

> <JCHEM_LOGP>
-1.2

> <ALOGPS_LOGS>
-1.6

> <JCHEM_POLARIZABILITY>
47.49

> <JCHEM_POLAR_SURFACE_AREA>
195.6

> <JCHEM_REFRACTIVITY>
105.56

> <JCHEM_ROTATABLE_BOND_COUNT>
13

> <ALOGPS_SOLUBILITY>
1.29e+01 g/l __ 

$$$$
