
  Mrv0541 02231217002D          

 11 10  0  0  1  0            999 V2000
    4.6184    2.6664    0.0000 N   0  0  0  0  0  0  0  0  0  0  0  0
    4.6184    1.8414    0.0000 C   0  0  1  0  0  0  0  0  0  0  0  0
    3.9039    1.4289    0.0000 C   0  0  0  0  0  0  0  0  0  0  0  0
    3.1895    1.8414    0.0000 S   0  0  0  0  0  0  0  0  0  0  0  0
    2.4750    1.4289    0.0000 P   0  0  0  0  0  0  0  0  0  0  0  0
    1.7605    1.0164    0.0000 O   0  0  0  0  0  0  0  0  0  0  0  0
    2.8875    0.7145    0.0000 O   0  0  0  0  0  0  0  0  0  0  0  0
    2.0625    2.1434    0.0000 O   0  0  0  0  0  0  0  0  0  0  0  0
    5.3329    1.4289    0.0000 C   0  0  0  0  0  0  0  0  0  0  0  0
    6.0474    1.8414    0.0000 O   0  0  0  0  0  0  0  0  0  0  0  0
    5.3329    0.6039    0.0000 O   0  0  0  0  0  0  0  0  0  0  0  0
  2  1  1  6  0  0  0
  2  3  1  0  0  0  0
  3  4  1  0  0  0  0
  4  5  1  0  0  0  0
  5  6  1  0  0  0  0
  5  7  1  0  0  0  0
  5  8  2  0  0  0  0
  2  9  1  0  0  0  0
  9 10  1  0  0  0  0
  9 11  2  0  0  0  0
M  END
> <DRUGBANK_ID>
DB03544

> <DRUG_GROUPS>
experimental

> <GENERIC_NAME>
S-Phosphocysteine

> <CHEMICAL_FORMULA>
C3H8NO5PS

> <MOLECULAR_WEIGHT>
201.138

> <EXACT_MASS>
200.986079573

> <IUPAC_NAME>
(2R)-2-amino-3-(phosphonosulfanyl)propanoic acid

> <IUPAC_TRADITIONAL_NAME>
S-phosphocysteine

> <INCHI_IDENTIFIER>
InChI=1S/C3H8NO5PS/c4-2(3(5)6)1-11-10(7,8)9/h2H,1,4H2,(H,5,6)(H2,7,8,9)/t2-/m0/s1

> <INCHI_KEY>
InChIKey=MNEMQJJMDDZXRO-REOHCLBHSA-N

> <SMILES>
N[C@@H](CSP(O)(O)=O)C(O)=O

> <JCHEM_ACCEPTOR_COUNT>
6

> <JCHEM_DONOR_COUNT>
4

> <JCHEM_ACIDIC_PKA>
1.5

> <JCHEM_BASIC_PKA>
9.9

> <JCHEM_PHYSIOLOGICAL_CHARGE>
-2

> <ALOGPS_LOGP>
-2.3

> <JCHEM_LOGP>
-3

> <ALOGPS_LOGS>
-0.67

> <JCHEM_POLARIZABILITY>
16.25

> <JCHEM_POLAR_SURFACE_AREA>
120.85

> <JCHEM_REFRACTIVITY>
39.52

> <JCHEM_ROTATABLE_BOND_COUNT>
4

> <ALOGPS_SOLUBILITY>
4.29e+01 g/l __ 

$$$$
