
  Mrv0541 02231216422D          

 27 28  0  0  1  0            999 V2000
    0.7145   -5.3625    0.0000 O    0  0  0  0  0  0  0  0  0  0  0  0
    1.4289   -4.9500    0.0000 C    0  0  0  0  0  0  0  0  0  0  0  0
    2.1434   -5.3625    0.0000 C    0  0  1  0  0  0  0  0  0  0  0  0
    2.1434   -6.1875    0.0000 O    0  0  0  0  0  0  0  0  0  0  0  0
    2.8579   -4.9500    0.0000 C    0  0  0  0  0  0  0  0  0  0  0  0
    3.5724   -5.3625    0.0000 O    0  0  0  0  0  0  0  0  0  0  0  0
    4.2868   -4.9500    0.0000 N    0  0  0  0  0  0  0  0  0  0  0  0
    5.0013   -5.3625    0.0000 C    0  0  0  0  0  0  0  0  0  0  0  0
    5.0013   -6.1875    0.0000 O    0  0  0  0  0  0  0  0  0  0  0  0
    5.7158   -4.9500    0.0000 C    0  0  0  0  0  0  0  0  0  0  0  0
    5.7158   -4.1250    0.0000 C    0  0  0  0  0  0  0  0  0  0  0  0
    6.4302   -3.7125    0.0000 C    0  0  0  0  0  0  0  0  0  0  0  0
    6.4302   -2.8875    0.0000 Br   0  0  0  0  0  0  0  0  0  0  0  0
    7.1447   -4.1250    0.0000 C    0  0  0  0  0  0  0  0  0  0  0  0
    7.8592   -3.7125    0.0000 F    0  0  0  0  0  0  0  0  0  0  0  0
    7.1447   -4.9500    0.0000 C    0  0  0  0  0  0  0  0  0  0  0  0
    7.8592   -5.3625    0.0000 F    0  0  0  0  0  0  0  0  0  0  0  0
    6.4302   -5.3625    0.0000 C    0  0  0  0  0  0  0  0  0  0  0  0
    6.4302   -6.1875    0.0000 N    0  0  0  0  0  0  0  0  0  0  0  0
    7.1447   -6.6000    0.0000 C    0  0  0  0  0  0  0  0  0  0  0  0
    7.8592   -6.1875    0.0000 C    0  0  0  0  0  0  0  0  0  0  0  0
    8.5737   -6.6000    0.0000 C    0  0  0  0  0  0  0  0  0  0  0  0
    8.5737   -7.4250    0.0000 C    0  0  0  0  0  0  0  0  0  0  0  0
    9.2881   -7.8375    0.0000 I    0  0  0  0  0  0  0  0  0  0  0  0
    7.8592   -7.8375    0.0000 C    0  0  0  0  0  0  0  0  0  0  0  0
    7.1447   -7.4250    0.0000 C    0  0  0  0  0  0  0  0  0  0  0  0
    6.4302   -7.8375    0.0000 F    0  0  0  0  0  0  0  0  0  0  0  0
  1  2  1  0  0  0  0
  2  3  1  0  0  0  0
  3  4  1  6  0  0  0
  3  5  1  0  0  0  0
  5  6  1  0  0  0  0
  6  7  1  0  0  0  0
  7  8  1  0  0  0  0
  8  9  2  0  0  0  0
  8 10  1  0  0  0  0
 10 11  2  0  0  0  0
 11 12  1  0  0  0  0
 12 13  1  0  0  0  0
 12 14  2  0  0  0  0
 14 15  1  0  0  0  0
 14 16  1  0  0  0  0
 16 17  1  0  0  0  0
 16 18  2  0  0  0  0
 10 18  1  0  0  0  0
 18 19  1  0  0  0  0
 19 20  1  0  0  0  0
 20 21  2  0  0  0  0
 21 22  1  0  0  0  0
 22 23  2  0  0  0  0
 23 24  1  0  0  0  0
 23 25  1  0  0  0  0
 25 26  2  0  0  0  0
 20 26  1  0  0  0  0
 26 27  1  0  0  0  0
M  END
> <DRUGBANK_ID>
DB03115

> <DRUG_GROUPS>
experimental

> <GENERIC_NAME>
5-Bromo-N-(2,3-Dihydroxypropoxy)-3,4-Difluoro-2-[(2-Fluoro-4-Iodophenyl)Amino]Benzamide

> <CHEMICAL_FORMULA>
C16H13BrF3IN2O4

> <MOLECULAR_WEIGHT>
561.089

> <EXACT_MASS>
559.905547596

> <IUPAC_NAME>
5-bromo-N-[(2R)-2,3-dihydroxypropoxy]-3,4-difluoro-2-[(2-fluoro-4-iodophenyl)amino]benzamide

> <IUPAC_TRADITIONAL_NAME>
5-bromo-N-[(2R)-2,3-dihydroxypropoxy]-3,4-difluoro-2-[(2-fluoro-4-iodophenyl)amino]benzamide

> <INCHI_IDENTIFIER>
InChI=1S/C16H13BrF3IN2O4/c17-10-4-9(16(26)23-27-6-8(25)5-24)15(14(20)13(10)19)22-12-2-1-7(21)3-11(12)18/h1-4,8,22,24-25H,5-6H2,(H,23,26)/t8-/m1/s1

> <INCHI_KEY>
InChIKey=XXSSGBYXSKOLAM-MRVPVSSYSA-N

> <SMILES>
OC[C@@H](O)CONC(=O)C1=CC(Br)=C(F)C(F)=C1NC1=CC=C(I)C=C1F

> <JCHEM_ACCEPTOR_COUNT>
5

> <JCHEM_DONOR_COUNT>
4

> <JCHEM_ACIDIC_PKA>
11.61

> <JCHEM_BASIC_PKA>
-3

> <JCHEM_PHYSIOLOGICAL_CHARGE>
0

> <ALOGPS_LOGP>
3.17

> <JCHEM_LOGP>
4.74

> <ALOGPS_LOGS>
-4.7

> <JCHEM_POLARIZABILITY>
41.55

> <JCHEM_POLAR_SURFACE_AREA>
90.82

> <JCHEM_REFRACTIVITY>
103.76

> <JCHEM_ROTATABLE_BOND_COUNT>
7

> <ALOGPS_SOLUBILITY>
1.15e-02 g/l __ 

$$$$
