
  Mrv0541 02231217162D          

 55 57  0  0  1  0            999 V2000
    0.7642    0.0140    0.0000 C   0  0  0  0  0  0  0  0  0  0  0  0
    0.3517    0.7285    0.0000 C   0  0  0  0  0  0  0  0  0  0  0  0
   -0.0608    1.4430    0.0000 C   0  0  0  0  0  0  0  0  0  0  0  0
   -0.3628    0.3160    0.0000 C   0  0  0  0  0  0  0  0  0  0  0  0
   -1.0772    0.7285    0.0000 O   0  0  0  0  0  0  0  0  0  0  0  0
   -1.7917    0.3160    0.0000 P   0  0  2  0  0  0  0  0  0  0  0  0
   -1.3792   -0.3985    0.0000 O   0  0  0  0  0  0  0  0  0  0  0  0
   -2.2042    1.0305    0.0000 O   0  0  0  0  0  0  0  0  0  0  0  0
   -2.5062   -0.0965    0.0000 O   0  0  0  0  0  0  0  0  0  0  0  0
   -3.2206    0.3160    0.0000 P   0  0  1  0  0  0  0  0  0  0  0  0
   -3.6331   -0.3985    0.0000 O   0  0  0  0  0  0  0  0  0  0  0  0
   -2.8081    1.0305    0.0000 O   0  0  0  0  0  0  0  0  0  0  0  0
   -3.9351    0.7285    0.0000 O   0  0  0  0  0  0  0  0  0  0  0  0
   -4.6496    0.3160    0.0000 C   0  0  0  0  0  0  0  0  0  0  0  0
   -5.3641    0.7285    0.0000 C   0  0  2  0  0  0  0  0  0  0  0  0
   -6.1177    0.3929    0.0000 O   0  0  0  0  0  0  0  0  0  0  0  0
   -6.6698    1.0060    0.0000 C   0  0  2  0  0  0  0  0  0  0  0  0
   -6.2573    1.7205    0.0000 C   0  0  2  0  0  0  0  0  0  0  0  0
   -6.5928    2.4742    0.0000 O   0  0  0  0  0  0  0  0  0  0  0  0
   -5.4503    1.5490    0.0000 C   0  0  1  0  0  0  0  0  0  0  0  0
   -4.8372    2.1010    0.0000 O   0  0  0  0  0  0  0  0  0  0  0  0
   -4.0526    1.8461    0.0000 P   0  0  0  0  0  0  0  0  0  0  0  0
   -4.3075    1.0615    0.0000 O   0  0  0  0  0  0  0  0  0  0  0  0
   -3.7976    2.6307    0.0000 O   0  0  0  0  0  0  0  0  0  0  0  0
   -3.2679    1.5911    0.0000 O   0  0  0  0  0  0  0  0  0  0  0  0
   -7.4902    0.9198    0.0000 N   0  0  0  0  0  0  0  0  0  0  0  0
   -8.0423    1.5329    0.0000 C   0  0  0  0  0  0  0  0  0  0  0  0
   -8.7959    1.1973    0.0000 N   0  0  0  0  0  0  0  0  0  0  0  0
   -8.7097    0.3769    0.0000 C   0  0  0  0  0  0  0  0  0  0  0  0
   -7.9027    0.2053    0.0000 C   0  0  0  0  0  0  0  0  0  0  0  0
   -7.6478   -0.5793    0.0000 N   0  0  0  0  0  0  0  0  0  0  0  0
   -8.1998   -1.1924    0.0000 C   0  0  0  0  0  0  0  0  0  0  0  0
   -9.0068   -1.0209    0.0000 N   0  0  0  0  0  0  0  0  0  0  0  0
   -9.2617   -0.2362    0.0000 C   0  0  0  0  0  0  0  0  0  0  0  0
  -10.0687   -0.0647    0.0000 N   0  0  0  0  0  0  0  0  0  0  0  0
    1.0662    1.1410    0.0000 C   0  0  1  0  0  0  0  0  0  0  0  0
    1.0662    1.9660    0.0000 O   0  0  0  0  0  0  0  0  0  0  0  0
    1.7807    0.7285    0.0000 C   0  0  0  0  0  0  0  0  0  0  0  0
    1.7807   -0.0965    0.0000 O   0  0  0  0  0  0  0  0  0  0  0  0
    2.4951    1.1410    0.0000 N   0  0  0  0  0  0  0  0  0  0  0  0
    3.2096    0.7285    0.0000 C   0  0  0  0  0  0  0  0  0  0  0  0
    3.9241    1.1410    0.0000 C   0  0  0  0  0  0  0  0  0  0  0  0
    4.6385    0.7285    0.0000 C   0  0  0  0  0  0  0  0  0  0  0  0
    4.6385   -0.0965    0.0000 O   0  0  0  0  0  0  0  0  0  0  0  0
    5.3530    1.1410    0.0000 N   0  0  0  0  0  0  0  0  0  0  0  0
    6.0675    0.7285    0.0000 C   0  0  0  0  0  0  0  0  0  0  0  0
    6.7820    1.1410    0.0000 C   0  0  0  0  0  0  0  0  0  0  0  0
    7.4964    0.7285    0.0000 N   0  0  0  0  0  0  0  0  0  0  0  0
    8.2109    1.1410    0.0000 C   0  0  0  0  0  0  0  0  0  0  0  0
    8.2109    1.9660    0.0000 O   0  0  0  0  0  0  0  0  0  0  0  0
    8.9254    0.7285    0.0000 C   0  0  0  0  0  0  0  0  0  0  0  0
    9.6398    1.1410    0.0000 C   0  0  0  0  0  0  0  0  0  0  0  0
   10.3543    0.7285    0.0000 C   0  0  0  0  0  0  0  0  0  0  0  0
   11.0688    1.1410    0.0000 O   0  0  0  0  0  0  0  0  0  0  0  0
   10.3543   -0.0965    0.0000 O   0  0  0  0  0  0  0  0  0  0  0  0
  1  2  1  0  0  0  0
  2  3  1  0  0  0  0
  2  4  1  0  0  0  0
  4  5  1  0  0  0  0
  6  5  1  1  0  0  0
  6  7  1  6  0  0  0
  6  8  2  0  0  0  0
  6  9  1  0  0  0  0
 10  9  1  6  0  0  0
 10 11  1  1  0  0  0
 10 12  2  0  0  0  0
 10 13  1  0  0  0  0
 13 14  1  0  0  0  0
 15 14  1  6  0  0  0
 15 16  1  0  0  0  0
 16 17  1  0  0  0  0
 17 18  1  0  0  0  0
 18 19  1  6  0  0  0
 18 20  1  0  0  0  0
 15 20  1  0  0  0  0
 20 21  1  1  0  0  0
 21 22  1  0  0  0  0
 22 23  1  0  0  0  0
 22 24  1  0  0  0  0
 22 25  2  0  0  0  0
 17 26  1  1  0  0  0
 26 27  1  0  0  0  0
 27 28  2  0  0  0  0
 28 29  1  0  0  0  0
 29 30  2  0  0  0  0
 26 30  1  0  0  0  0
 30 31  1  0  0  0  0
 31 32  2  0  0  0  0
 32 33  1  0  0  0  0
 33 34  2  0  0  0  0
 29 34  1  0  0  0  0
 34 35  1  0  0  0  0
  2 36  1  0  0  0  0
 36 37  1  1  0  0  0
 36 38  1  0  0  0  0
 38 39  2  0  0  0  0
 38 40  1  0  0  0  0
 40 41  1  0  0  0  0
 41 42  1  0  0  0  0
 42 43  1  0  0  0  0
 43 44  2  0  0  0  0
 43 45  1  0  0  0  0
 45 46  1  0  0  0  0
 46 47  1  0  0  0  0
 47 48  1  0  0  0  0
 48 49  1  0  0  0  0
 49 50  2  0  0  0  0
 49 51  1  0  0  0  0
 51 52  1  0  0  0  0
 52 53  1  0  0  0  0
 53 54  1  0  0  0  0
 53 55  2  0  0  0  0
M  END
> <DRUGBANK_ID>
DB03905

> <DRUG_GROUPS>
experimental

> <GENERIC_NAME>
Succinamide-Coa

> <CHEMICAL_FORMULA>
C25H41N8O19P3

> <MOLECULAR_WEIGHT>
850.5565

> <EXACT_MASS>
850.170080706

> <IUPAC_NAME>
3-[(2-{3-[(2R)-3-[({[({[(2S,3R,4R,5R)-5-(6-amino-9H-purin-9-yl)-4-hydroxy-3-(phosphonooxy)oxolan-2-yl]methoxy}(hydroxy)phosphoryl)oxy](hydroxy)phosphoryl}oxy)methyl]-2-hydroxy-3-methylbutanamido]propanamido}ethyl)carbamoyl]propanoic acid

> <IUPAC_TRADITIONAL_NAME>
3-[(2-{3-[(2R)-3-{[({[(2S,3R,4R,5R)-5-(6-aminopurin-9-yl)-4-hydroxy-3-(phosphonooxy)oxolan-2-yl]methoxy(hydroxy)phosphoryl}oxy(hydroxy)phosphoryl)oxy]methyl}-2-hydroxy-3-methylbutanamido]propanamido}ethyl)carbamoyl]propanoic acid

> <INCHI_IDENTIFIER>
InChI=1S/C25H41N8O19P3/c1-25(2,20(39)23(40)29-6-5-15(35)28-8-7-27-14(34)3-4-16(36)37)10-49-55(46,47)52-54(44,45)48-9-13-19(51-53(41,42)43)18(38)24(50-13)33-12-32-17-21(26)30-11-31-22(17)33/h11-13,18-20,24,38-39H,3-10H2,1-2H3,(H,27,34)(H,28,35)(H,29,40)(H,36,37)(H,44,45)(H,46,47)(H2,26,30,31)(H2,41,42,43)/t13-,18+,19-,20-,24+/m0/s1

> <INCHI_KEY>
InChIKey=WZEXTLJNSXEEHK-LJEXEIFSSA-N

> <SMILES>
CC(C)(CO[P@](O)(=O)O[P@@](O)(=O)OC[C@@H]1O[C@H]([C@H](O)[C@H]1OP(O)(O)=O)N1C=NC2=C1N=CN=C2N)[C@@H](O)C(=O)NCCC(=O)NCCNC(=O)CCC(O)=O

> <JCHEM_ACCEPTOR_COUNT>
19

> <JCHEM_DONOR_COUNT>
11

> <JCHEM_ACIDIC_PKA>
0.83

> <JCHEM_BASIC_PKA>
4.99

> <JCHEM_PHYSIOLOGICAL_CHARGE>
-5

> <ALOGPS_LOGP>
-0.98

> <JCHEM_LOGP>
-8.4

> <ALOGPS_LOGS>
-2.4

> <JCHEM_POLARIZABILITY>
75.54

> <JCHEM_POLAR_SURFACE_AREA>
412.96

> <JCHEM_REFRACTIVITY>
178.55

> <JCHEM_ROTATABLE_BOND_COUNT>
22

> <ALOGPS_SOLUBILITY>
3.52e+00 g/l __ 

$$$$
