DAC
  Mrv0541 02231217122D          

 18 17  0  0  0  0            999 V2000
    1.2261   -0.4125    0.0000 C   0  0  0  0  0  0  0  0  0  0  0  0
    0.5116   -0.8250    0.0000 O   0  0  0  0  0  0  0  0  0  0  0  0
    1.2261    0.4125    0.0000 C   0  0  0  0  0  0  0  0  0  0  0  0
    0.5116    0.8250    0.0000 C   0  0  0  0  0  0  0  0  0  0  0  0
   -0.2029    0.4125    0.0000 C   0  0  0  0  0  0  0  0  0  0  0  0
   -0.9173    0.8250    0.0000 C   0  0  0  0  0  0  0  0  0  0  0  0
   -1.6318    0.4125    0.0000 C   0  0  0  0  0  0  0  0  0  0  0  0
   -2.3463    0.8250    0.0000 C   0  0  0  0  0  0  0  0  0  0  0  0
   -3.0608    0.4125    0.0000 C   0  0  0  0  0  0  0  0  0  0  0  0
   -3.7752    0.8250    0.0000 C   0  0  0  0  0  0  0  0  0  0  0  0
   -4.4897    0.4125    0.0000 C   0  0  0  0  0  0  0  0  0  0  0  0
    1.9405   -0.8250    0.0000 S   0  0  0  0  0  0  0  0  0  0  0  0
    2.6550   -0.4125    0.0000 C   0  0  0  0  0  0  0  0  0  0  0  0
    3.3695   -0.8250    0.0000 C   0  0  0  0  0  0  0  0  0  0  0  0
    4.0840   -0.4125    0.0000 N   0  0  0  0  0  0  0  0  0  0  0  0
    4.7984   -0.8250    0.0000 C   0  0  0  0  0  0  0  0  0  0  0  0
    5.5129   -0.4125    0.0000 O   0  0  0  0  0  0  0  0  0  0  0  0
    4.7984   -1.6500    0.0000 C   0  0  0  0  0  0  0  0  0  0  0  0
  1  2  2  0  0  0  0
  1  3  1  0  0  0  0
  1 12  1  0  0  0  0
  3  4  2  0  0  0  0
  4  5  1  0  0  0  0
  5  6  1  0  0  0  0
  6  7  1  0  0  0  0
  7  8  1  0  0  0  0
  8  9  1  0  0  0  0
  9 10  1  0  0  0  0
 10 11  1  0  0  0  0
 12 13  1  0  0  0  0
 13 14  1  0  0  0  0
 14 15  1  0  0  0  0
 15 16  1  0  0  0  0
 16 17  2  0  0  0  0
 16 18  1  0  0  0  0
M  END
> <DRUGBANK_ID>
DB03813

> <DRUG_GROUPS>
experimental

> <GENERIC_NAME>
2-Decenoyl N-Acetyl Cysteamine

> <CHEMICAL_FORMULA>
C14H25NO2S

> <MOLECULAR_WEIGHT>
271.419

> <EXACT_MASS>
271.160599739

> <IUPAC_NAME>
N-{2-[(2Z)-dec-2-enoylsulfanyl]ethyl}acetamide

> <IUPAC_TRADITIONAL_NAME>
N-{2-[(2Z)-dec-2-enoylsulfanyl]ethyl}acetamide

> <INCHI_IDENTIFIER>
InChI=1S/C14H25NO2S/c1-3-4-5-6-7-8-9-10-14(17)18-12-11-15-13(2)16/h9-10H,3-8,11-12H2,1-2H3,(H,15,16)/b10-9-

> <INCHI_KEY>
InChIKey=HYDKTIAWESXLEF-KTKRTIGZSA-N

> <SMILES>
CCCCCCC\C=C/C(=O)SCCNC(C)=O

> <JCHEM_ACCEPTOR_COUNT>
2

> <JCHEM_DONOR_COUNT>
1

> <JCHEM_ACIDIC_PKA>
15.73

> <JCHEM_BASIC_PKA>
-0.96

> <JCHEM_PHYSIOLOGICAL_CHARGE>
0

> <ALOGPS_LOGP>
3.87

> <JCHEM_LOGP>
3.48

> <ALOGPS_LOGS>
-4.6

> <JCHEM_POLARIZABILITY>
33.14

> <JCHEM_POLAR_SURFACE_AREA>
46.17

> <JCHEM_REFRACTIVITY>
79.23

> <JCHEM_ROTATABLE_BOND_COUNT>
11

> <ALOGPS_SOLUBILITY>
7.17e-03 g/l __ 

$$$$
