
  Mrv0541 02231217002D          

 16 16  0  0  1  0            999 V2000
    2.1434    1.2375    0.0000 O   0  0  0  0  0  0  0  0  0  0  0  0
    1.4289    0.8250    0.0000 C   0  0  1  0  0  0  0  0  0  0  0  0
    1.4289    0.0000    0.0000 C   0  0  2  0  0  0  0  0  0  0  0  0
    2.1434   -0.4125    0.0000 O   0  0  0  0  0  0  0  0  0  0  0  0
    0.7145   -0.4125    0.0000 C   0  0  1  0  0  0  0  0  0  0  0  0
    0.7145   -1.2375    0.0000 O   0  0  0  0  0  0  0  0  0  0  0  0
    0.0000    0.0000    0.0000 C   0  0  2  0  0  0  0  0  0  0  0  0
   -0.7145   -0.4125    0.0000 O   0  0  0  0  0  0  0  0  0  0  0  0
   -0.7145   -1.2375    0.0000 P   0  0  0  0  0  0  0  0  0  0  0  0
   -0.7145   -2.0625    0.0000 O   0  5  0  0  0  0  0  0  0  0  0  0
   -1.5395   -1.2375    0.0000 O   0  5  0  0  0  0  0  0  0  0  0  0
    0.1105   -1.2375    0.0000 O   0  0  0  0  0  0  0  0  0  0  0  0
    0.0000    0.8250    0.0000 C   0  0  1  0  0  0  0  0  0  0  0  0
   -0.7145    1.2375    0.0000 O   0  0  0  0  0  0  0  0  0  0  0  0
    0.7145    1.2375    0.0000 C   0  0  2  0  0  0  0  0  0  0  0  0
    0.7145    2.0625    0.0000 O   0  0  0  0  0  0  0  0  0  0  0  0
  2  1  1  1  0  0  0
  2  3  1  0  0  0  0
  3  4  1  6  0  0  0
  3  5  1  0  0  0  0
  5  6  1  1  0  0  0
  5  7  1  0  0  0  0
  7  8  1  6  0  0  0
  8  9  1  0  0  0  0
  9 10  1  0  0  0  0
  9 11  1  0  0  0  0
  9 12  2  0  0  0  0
  7 13  1  0  0  0  0
 13 14  1  1  0  0  0
 13 15  1  0  0  0  0
  2 15  1  0  0  0  0
 15 16  1  6  0  0  0
M  END
> <DRUGBANK_ID>
DB03542

> <DRUG_GROUPS>
experimental

> <GENERIC_NAME>
L-Myo-Inositol-1-Phosphate

> <CHEMICAL_FORMULA>
C6H11O9P

> <MOLECULAR_WEIGHT>
258.1199

> <EXACT_MASS>
258.014068462

> <IUPAC_NAME>
(1r,2R,3S,4s,5R,6S)-2,3,4,5,6-pentahydroxycyclohexyl phosphate

> <IUPAC_TRADITIONAL_NAME>
(1r,2R,3S,4s,5R,6S)-2,3,4,5,6-pentahydroxycyclohexyl phosphate

> <INCHI_IDENTIFIER>
InChI=1S/C6H13O9P/c7-1-2(8)4(10)6(5(11)3(1)9)15-16(12,13)14/h1-11H,(H2,12,13,14)/p-2/t1-,2-,3+,4+,5-,6-

> <INCHI_KEY>
InChIKey=INAPMGSXUVUWAF-CDRYSYESSA-L

> <SMILES>
O[C@H]1[C@H](O)[C@@H](O)[C@H](OP([O-])([O-])=O)[C@@H](O)[C@@H]1O

> <JCHEM_ACCEPTOR_COUNT>
8

> <JCHEM_DONOR_COUNT>
5

> <JCHEM_ACIDIC_PKA>
1.16

> <JCHEM_BASIC_PKA>
-3.6

> <JCHEM_PHYSIOLOGICAL_CHARGE>
-2

> <ALOGPS_LOGP>
-1.6

> <JCHEM_LOGP>
-3.9

> <ALOGPS_LOGS>
-0.53

> <JCHEM_POLARIZABILITY>
19.99

> <JCHEM_POLAR_SURFACE_AREA>
173.57

> <JCHEM_REFRACTIVITY>
44.4

> <JCHEM_ROTATABLE_BOND_COUNT>
2

> <ALOGPS_SOLUBILITY>
8.59e+01 g/l __ 

$$$$
