
  Mrv0541 02231216492D          

  7  6  0  0  0  0            999 V2000
    1.7605    1.8414    0.0000 O   0  0  0  0  0  0  0  0  0  0  0  0
    2.4750    1.4289    0.0000 C   0  0  0  0  0  0  0  0  0  0  0  0
    3.1895    1.8414    0.0000 C   0  0  0  0  0  0  0  0  0  0  0  0
    3.9039    1.4289    0.0000 C   0  0  0  0  0  0  0  0  0  0  0  0
    4.6184    1.8414    0.0000 C   0  0  0  0  0  0  0  0  0  0  0  0
    5.3329    1.4289    0.0000 C   0  0  0  0  0  0  0  0  0  0  0  0
    6.0474    1.8414    0.0000 O   0  0  0  0  0  0  0  0  0  0  0  0
  1  2  2  0  0  0  0
  2  3  1  0  0  0  0
  3  4  1  0  0  0  0
  4  5  1  0  0  0  0
  5  6  1  0  0  0  0
  6  7  2  0  0  0  0
M  END
> <DRUGBANK_ID>
DB03266

> <DRUG_GROUPS>
experimental

> <GENERIC_NAME>
Pentanedial

> <CHEMICAL_FORMULA>
C5H8O2

> <MOLECULAR_WEIGHT>
100.1158

> <EXACT_MASS>
100.0524295

> <IUPAC_NAME>
pentanedial

> <IUPAC_TRADITIONAL_NAME>
pentanedial

> <INCHI_IDENTIFIER>
InChI=1S/C5H8O2/c6-4-2-1-3-5-7/h4-5H,1-3H2

> <INCHI_KEY>
InChIKey=SXRSQZLOMIGNAQ-UHFFFAOYSA-N

> <SMILES>
O=CCCCC=O

> <JCHEM_ACCEPTOR_COUNT>
2

> <JCHEM_DONOR_COUNT>
0

> <JCHEM_ACIDIC_PKA>
14.48

> <JCHEM_BASIC_PKA>
-6.6

> <JCHEM_PHYSIOLOGICAL_CHARGE>
0

> <ALOGPS_LOGP>
0.93

> <JCHEM_LOGP>
-0.27

> <ALOGPS_LOGS>
-0.19

> <JCHEM_POLARIZABILITY>
10.33

> <JCHEM_POLAR_SURFACE_AREA>
34.14

> <JCHEM_REFRACTIVITY>
26.29

> <JCHEM_ROTATABLE_BOND_COUNT>
4

> <ALOGPS_SOLUBILITY>
6.40e+01 g/l __ 

$$$$
