
  Mrv0541 02231217102D          

 24 23  0  0  0  0            999 V2000
   -2.4750   -2.8579    0.0000 C   0  0  0  0  0  0  0  0  0  0  0  0
   -1.6500   -2.8579    0.0000 C   0  0  0  0  0  0  0  0  0  0  0  0
   -1.2375   -3.5724    0.0000 C   0  0  0  0  0  0  0  0  0  0  0  0
   -0.4125   -3.5724    0.0000 C   0  0  0  0  0  0  0  0  0  0  0  0
    0.0000   -4.2868    0.0000 C   0  0  0  0  0  0  0  0  0  0  0  0
    0.8250   -4.2868    0.0000 C   0  0  0  0  0  0  0  0  0  0  0  0
    1.2375   -3.5724    0.0000 C   0  0  0  0  0  0  0  0  0  0  0  0
    2.0625   -3.5724    0.0000 C   0  0  0  0  0  0  0  0  0  0  0  0
    2.4750   -2.8579    0.0000 C   0  0  0  0  0  0  0  0  0  0  0  0
    3.3000   -2.8579    0.0000 C   0  0  0  0  0  0  0  0  0  0  0  0
    3.7125   -2.1434    0.0000 C   0  0  0  0  0  0  0  0  0  0  0  0
    3.3000   -1.4289    0.0000 C   0  0  0  0  0  0  0  0  0  0  0  0
    3.7125   -0.7145    0.0000 C   0  0  0  0  0  0  0  0  0  0  0  0
    3.3000    0.0000    0.0000 C   0  0  0  0  0  0  0  0  0  0  0  0
    2.4750    0.0000    0.0000 C   0  0  0  0  0  0  0  0  0  0  0  0
    2.0625    0.7145    0.0000 C   0  0  0  0  0  0  0  0  0  0  0  0
    1.2375    0.7145    0.0000 C   0  0  0  0  0  0  0  0  0  0  0  0
    0.8250    0.0000    0.0000 C   0  0  0  0  0  0  0  0  0  0  0  0
    0.0000    0.0000    0.0000 C   0  0  0  0  0  0  0  0  0  0  0  0
   -0.4125   -0.7145    0.0000 C   0  0  0  0  0  0  0  0  0  0  0  0
    0.0000   -1.4289    0.0000 C   0  0  0  0  0  0  0  0  0  0  0  0
   -0.4125   -2.1434    0.0000 C   0  0  0  0  0  0  0  0  0  0  0  0
   -1.2375   -2.1434    0.0000 O   0  0  0  0  0  0  0  0  0  0  0  0
    0.0000   -2.8579    0.0000 O   0  0  0  0  0  0  0  0  0  0  0  0
  1  2  1  0  0  0  0
  2  3  1  0  0  0  0
  3  4  2  0  0  0  0
  4  5  1  0  0  0  0
  5  6  1  0  0  0  0
  6  7  2  0  0  0  0
  7  8  1  0  0  0  0
  8  9  1  0  0  0  0
  9 10  2  0  0  0  0
 10 11  1  0  0  0  0
 11 12  1  0  0  0  0
 12 13  2  0  0  0  0
 13 14  1  0  0  0  0
 14 15  1  0  0  0  0
 15 16  2  0  0  0  0
 16 17  1  0  0  0  0
 17 18  1  0  0  0  0
 18 19  2  0  0  0  0
 19 20  1  0  0  0  0
 20 21  1  0  0  0  0
 21 22  1  0  0  0  0
 22 23  1  0  0  0  0
 22 24  2  0  0  0  0
M  END
> <DRUGBANK_ID>
DB03756

> <DRUG_GROUPS>
experimental

> <GENERIC_NAME>
Docosa-4,7,10,13,16,19-Hexaenoic Acid

> <CHEMICAL_FORMULA>
C22H32O2

> <MOLECULAR_WEIGHT>
328.4883

> <EXACT_MASS>
328.240230268

> <IUPAC_NAME>
(4E,7E,10E,13E,16E,19E)-docosa-4,7,10,13,16,19-hexaenoic acid

> <IUPAC_TRADITIONAL_NAME>
(4E,7E,10E,13E,16E,19E)-docosa-4,7,10,13,16,19-hexaenoic acid

> <INCHI_IDENTIFIER>
InChI=1S/C22H32O2/c1-2-3-4-5-6-7-8-9-10-11-12-13-14-15-16-17-18-19-20-21-22(23)24/h3-4,6-7,9-10,12-13,15-16,18-19H,2,5,8,11,14,17,20-21H2,1H3,(H,23,24)/b4-3+,7-6+,10-9+,13-12+,16-15+,19-18+

> <INCHI_KEY>
InChIKey=MBMBGCFOFBJSGT-SFGLVEFQSA-N

> <SMILES>
CC\C=C\C\C=C\C\C=C\C\C=C\C\C=C\C\C=C\CCC(O)=O

> <JCHEM_ACCEPTOR_COUNT>
2

> <JCHEM_DONOR_COUNT>
1

> <JCHEM_ACIDIC_PKA>
4.89

> <JCHEM_PHYSIOLOGICAL_CHARGE>
-1

> <ALOGPS_LOGP>
6.83

> <JCHEM_LOGP>
6.75

> <ALOGPS_LOGS>
-6.2

> <JCHEM_POLARIZABILITY>
39.92

> <JCHEM_POLAR_SURFACE_AREA>
37.3

> <JCHEM_REFRACTIVITY>
111.39

> <JCHEM_ROTATABLE_BOND_COUNT>
14

> <ALOGPS_SOLUBILITY>
1.86e-04 g/l __ 

$$$$
