
  Mrv0541 02231216452D          

 10 10  0  0  0  0            999 V2000
    2.1434    1.2375    0.0000 C   0  0  0  0  0  0  0  0  0  0  0  0
    1.4289    0.8250    0.0000 C   0  0  0  0  0  0  0  0  0  0  0  0
    1.4289    0.0000    0.0000 C   0  0  0  0  0  0  0  0  0  0  0  0
    0.7145   -0.4125    0.0000 C   0  0  0  0  0  0  0  0  0  0  0  0
    0.7145   -1.2375    0.0000 N   0  0  0  0  0  0  0  0  0  0  0  0
    0.0000    0.0000    0.0000 C   0  0  0  0  0  0  0  0  0  0  0  0
   -0.7145   -0.4125    0.0000 N   0  0  0  0  0  0  0  0  0  0  0  0
    0.0000    0.8250    0.0000 C   0  0  0  0  0  0  0  0  0  0  0  0
    0.7145    1.2375    0.0000 C   0  0  0  0  0  0  0  0  0  0  0  0
    0.7145    2.0625    0.0000 C   0  0  0  0  0  0  0  0  0  0  0  0
  1  2  1  0  0  0  0
  2  3  2  0  0  0  0
  3  4  1  0  0  0  0
  4  5  1  0  0  0  0
  4  6  2  0  0  0  0
  6  7  1  0  0  0  0
  6  8  1  0  0  0  0
  8  9  2  0  0  0  0
  2  9  1  0  0  0  0
  9 10  1  0  0  0  0
M  END
> <DRUGBANK_ID>
DB03180

> <DRUG_GROUPS>
experimental

> <GENERIC_NAME>
4,5-Dimethyl-1,2-Phenylenediamine

> <CHEMICAL_FORMULA>
C8H12N2

> <MOLECULAR_WEIGHT>
136.1943

> <EXACT_MASS>
136.100048394

> <IUPAC_NAME>
4,5-dimethylbenzene-1,2-diamine

> <IUPAC_TRADITIONAL_NAME>
4,5-dimethylbenzene-1,2-diamine

> <INCHI_IDENTIFIER>
InChI=1S/C8H12N2/c1-5-3-7(9)8(10)4-6(5)2/h3-4H,9-10H2,1-2H3

> <INCHI_KEY>
InChIKey=XSZYBMMYQCYIPC-UHFFFAOYSA-N

> <SMILES>
CC1=CC(N)=C(N)C=C1C

> <JCHEM_ACCEPTOR_COUNT>
2

> <JCHEM_DONOR_COUNT>
2

> <JCHEM_BASIC_PKA>
5.23

> <JCHEM_PHYSIOLOGICAL_CHARGE>
0

> <ALOGPS_LOGP>
0.88

> <JCHEM_LOGP>
1.34

> <ALOGPS_LOGS>
-1

> <JCHEM_POLARIZABILITY>
15.79

> <JCHEM_POLAR_SURFACE_AREA>
52.04

> <JCHEM_REFRACTIVITY>
45.54

> <JCHEM_ROTATABLE_BOND_COUNT>
0

> <ALOGPS_SOLUBILITY>
1.31e+01 g/l __ 

$$$$
