
  Mrv0541 02231217012D          

 13 13  0  0  1  0            999 V2000
    2.8579    0.8250    0.0000 N   0  0  0  0  0  0  0  0  0  0  0  0
    2.8579    0.0000    0.0000 C   0  0  1  0  0  0  0  0  0  0  0  0
    2.1434   -0.4125    0.0000 C   0  0  0  0  0  0  0  0  0  0  0  0
    1.4289    0.0000    0.0000 C   0  0  0  0  0  0  0  0  0  0  0  0
    0.7145   -0.4125    0.0000 C   0  0  0  0  0  0  0  0  0  0  0  0
    0.0000    0.0000    0.0000 C   0  0  0  0  0  0  0  0  0  0  0  0
    0.0000    0.8250    0.0000 C   0  0  0  0  0  0  0  0  0  0  0  0
    0.7145    1.2375    0.0000 C   0  0  0  0  0  0  0  0  0  0  0  0
    0.7145    2.0625    0.0000 O   0  0  0  0  0  0  0  0  0  0  0  0
    1.4289    0.8250    0.0000 C   0  0  0  0  0  0  0  0  0  0  0  0
    3.5724   -0.4125    0.0000 C   0  0  0  0  0  0  0  0  0  0  0  0
    4.2868    0.0000    0.0000 O   0  0  0  0  0  0  0  0  0  0  0  0
    3.5724   -1.2375    0.0000 O   0  0  0  0  0  0  0  0  0  0  0  0
  2  1  1  6  0  0  0
  2  3  1  0  0  0  0
  3  4  1  0  0  0  0
  4  5  2  0  0  0  0
  5  6  1  0  0  0  0
  6  7  2  0  0  0  0
  7  8  1  0  0  0  0
  8  9  1  0  0  0  0
  8 10  2  0  0  0  0
  4 10  1  0  0  0  0
  2 11  1  0  0  0  0
 11 12  1  0  0  0  0
 11 13  2  0  0  0  0
M  END
> <DRUGBANK_ID>
DB03552

> <DRUG_GROUPS>
experimental

> <GENERIC_NAME>
Meta-Tyrosine

> <CHEMICAL_FORMULA>
C9H11NO3

> <MOLECULAR_WEIGHT>
181.1885

> <EXACT_MASS>
181.073893223

> <IUPAC_NAME>
(2S)-2-amino-3-(3-hydroxyphenyl)propanoic acid

> <IUPAC_TRADITIONAL_NAME>
3-hydroxyphenylalanine

> <INCHI_IDENTIFIER>
InChI=1S/C9H11NO3/c10-8(9(12)13)5-6-2-1-3-7(11)4-6/h1-4,8,11H,5,10H2,(H,12,13)/t8-/m0/s1

> <INCHI_KEY>
InChIKey=JZKXXXDKRQWDET-QMMMGPOBSA-N

> <SMILES>
N[C@@H](CC1=CC=CC(O)=C1)C(O)=O

> <JCHEM_ACCEPTOR_COUNT>
4

> <JCHEM_DONOR_COUNT>
3

> <JCHEM_ACIDIC_PKA>
2

> <JCHEM_BASIC_PKA>
9.14

> <JCHEM_PHYSIOLOGICAL_CHARGE>
0

> <ALOGPS_LOGP>
-2.3

> <JCHEM_LOGP>
-1.5

> <ALOGPS_LOGS>
-1.6

> <JCHEM_POLARIZABILITY>
18.13

> <JCHEM_POLAR_SURFACE_AREA>
83.55

> <JCHEM_REFRACTIVITY>
47.1

> <JCHEM_ROTATABLE_BOND_COUNT>
3

> <ALOGPS_SOLUBILITY>
5.13e+00 g/l __ 

$$$$
