
  Mrv0541 02231216512D          

 20 20  0  0  1  0            999 V2000
    3.5724    1.2375    0.0000 C   0  0  0  0  0  0  0  0  0  0  0  0
    2.8579    0.8250    0.0000 C   0  0  0  0  0  0  0  0  0  0  0  0
    2.8579    0.0000    0.0000 O   0  0  0  0  0  0  0  0  0  0  0  0
    2.1434    1.2375    0.0000 N   0  0  0  0  0  0  0  0  0  0  0  0
    1.4289    0.8250    0.0000 C   0  0  2  0  0  0  0  0  0  0  0  0
    1.4289    0.0000    0.0000 C   0  0  1  0  0  0  0  0  0  0  0  0
    2.1434   -0.4125    0.0000 N   0  0  0  0  0  0  0  0  0  0  0  0
    0.7145   -0.4125    0.0000 C   0  0  0  0  0  0  0  0  0  0  0  0
    0.0000    0.0000    0.0000 C   0  0  0  0  0  0  0  0  0  0  0  0
    0.0000    0.8250    0.0000 O   0  0  0  0  0  0  0  0  0  0  0  0
    0.7145    1.2375    0.0000 C   0  0  1  0  0  0  0  0  0  0  0  0
    0.7145    2.0625    0.0000 C   0  0  2  0  0  0  0  0  0  0  0  0
    1.4289    2.4750    0.0000 O   0  0  0  0  0  0  0  0  0  0  0  0
    0.0000    2.4750    0.0000 C   0  0  1  0  0  0  0  0  0  0  0  0
   -0.7145    2.0625    0.0000 O   0  0  0  0  0  0  0  0  0  0  0  0
    0.0000    3.3000    0.0000 C   0  0  0  0  0  0  0  0  0  0  0  0
   -0.7145    3.7125    0.0000 O   0  0  0  0  0  0  0  0  0  0  0  0
   -0.7145   -0.4125    0.0000 C   0  0  0  0  0  0  0  0  0  0  0  0
   -1.4289    0.0000    0.0000 O   0  0  0  0  0  0  0  0  0  0  0  0
   -0.7145   -1.2375    0.0000 O   0  0  0  0  0  0  0  0  0  0  0  0
  1  2  1  0  0  0  0
  2  3  2  0  0  0  0
  2  4  1  0  0  0  0
  5  4  1  6  0  0  0
  5  6  1  0  0  0  0
  6  7  1  1  0  0  0
  6  8  1  0  0  0  0
  8  9  2  0  0  0  0
  9 10  1  0  0  0  0
 10 11  1  0  0  0  0
  5 11  1  0  0  0  0
 11 12  1  1  0  0  0
 12 13  1  1  0  0  0
 12 14  1  0  0  0  0
 14 15  1  1  0  0  0
 14 16  1  0  0  0  0
 16 17  1  0  0  0  0
  9 18  1  0  0  0  0
 18 19  1  0  0  0  0
 18 20  2  0  0  0  0
M  END
> <DRUGBANK_ID>
DB03321

> <DRUG_GROUPS>
experimental

> <GENERIC_NAME>
4-Amino-2-Deoxy-2,3-Dehydro-N-Neuraminic Acid

> <CHEMICAL_FORMULA>
C11H18N2O7

> <MOLECULAR_WEIGHT>
290.2698

> <EXACT_MASS>
290.11140094

> <IUPAC_NAME>
(2R,3R,4S)-4-amino-3-acetamido-2-[(1R,2S)-1,2,3-trihydroxypropyl]-3,4-dihydro-2H-pyran-6-carboxylic acid

> <IUPAC_TRADITIONAL_NAME>
(4S,5R,6R)-4-amino-5-acetamido-6-[(1R,2S)-1,2,3-trihydroxypropyl]-5,6-dihydro-4H-pyran-2-carboxylic acid

> <INCHI_IDENTIFIER>
InChI=1S/C11H18N2O7/c1-4(15)13-8-5(12)2-7(11(18)19)20-10(8)9(17)6(16)3-14/h2,5-6,8-10,14,16-17H,3,12H2,1H3,(H,13,15)(H,18,19)/t5-,6-,8+,9+,10+/m0/s1

> <INCHI_KEY>
InChIKey=NKENBBIXEGPQLS-CUZACWQJSA-N

> <SMILES>
CC(=O)N[C@@H]1[C@@H](N)C=C(O[C@H]1[C@H](O)[C@@H](O)CO)C(O)=O

> <JCHEM_ACCEPTOR_COUNT>
8

> <JCHEM_DONOR_COUNT>
6

> <JCHEM_ACIDIC_PKA>
3.3

> <JCHEM_BASIC_PKA>
8.44

> <JCHEM_PHYSIOLOGICAL_CHARGE>
0

> <ALOGPS_LOGP>
-3

> <JCHEM_LOGP>
-6.1

> <ALOGPS_LOGS>
-0.7

> <JCHEM_POLARIZABILITY>
27.57

> <JCHEM_POLAR_SURFACE_AREA>
162.34

> <JCHEM_REFRACTIVITY>
65.77

> <JCHEM_ROTATABLE_BOND_COUNT>
5

> <ALOGPS_SOLUBILITY>
5.80e+01 g/l __ 

$$$$
