
  Mrv0541 02231217132D          

 25 24  0  0  1  0            999 V2000
   -1.6717    3.9849    0.0000 C   0  0  0  0  0  0  0  0  0  0  0  0
   -0.9572    3.5724    0.0000 C   0  0  0  0  0  0  0  0  0  0  0  0
   -0.2427    3.9849    0.0000 C   0  0  0  0  0  0  0  0  0  0  0  0
    0.4717    3.5724    0.0000 C   0  0  0  0  0  0  0  0  0  0  0  0
    1.1862    3.9849    0.0000 C   0  0  0  0  0  0  0  0  0  0  0  0
    1.9007    3.5724    0.0000 C   0  0  0  0  0  0  0  0  0  0  0  0
    2.6151    3.9849    0.0000 C   0  0  0  0  0  0  0  0  0  0  0  0
    3.3296    3.5724    0.0000 C   0  0  0  0  0  0  0  0  0  0  0  0
    4.0441    3.9849    0.0000 C   0  0  0  0  0  0  0  0  0  0  0  0
    4.7586    3.5724    0.0000 C   0  0  0  0  0  0  0  0  0  0  0  0
    5.4730    3.9849    0.0000 C   0  0  0  0  0  0  0  0  0  0  0  0
    6.1875    3.5724    0.0000 C   0  0  0  0  0  0  0  0  0  0  0  0
    6.9020    3.9849    0.0000 C   0  0  0  0  0  0  0  0  0  0  0  0
    7.6164    3.5724    0.0000 C   0  0  0  0  0  0  0  0  0  0  0  0
    8.3309    3.9849    0.0000 C   0  0  0  0  0  0  0  0  0  0  0  0
    9.0454    3.5724    0.0000 C   0  0  0  0  0  0  0  0  0  0  0  0
    9.7599    3.9849    0.0000 C   0  0  0  0  0  0  0  0  0  0  0  0
   10.4743    3.5724    0.0000 C   0  0  0  0  0  0  0  0  0  0  0  0
   11.1888    3.9849    0.0000 O   0  0  0  0  0  0  0  0  0  0  0  0
   11.9033    3.5724    0.0000 C   0  0  0  0  0  0  0  0  0  0  0  0
   11.9033    2.7474    0.0000 O   0  0  0  0  0  0  0  0  0  0  0  0
   12.6177    3.9849    0.0000 C   0  0  1  0  0  0  0  0  0  0  0  0
   12.6177    4.8099    0.0000 O   0  0  0  0  0  0  0  0  0  0  0  0
   13.3322    3.5724    0.0000 C   0  0  0  0  0  0  0  0  0  0  0  0
   14.0467    3.9849    0.0000 O   0  0  0  0  0  0  0  0  0  0  0  0
  1  2  1  0  0  0  0
  2  3  1  0  0  0  0
  3  4  1  0  0  0  0
  4  5  1  0  0  0  0
  5  6  1  0  0  0  0
  6  7  1  0  0  0  0
  7  8  1  0  0  0  0
  8  9  1  0  0  0  0
  9 10  2  0  0  0  0
 10 11  1  0  0  0  0
 11 12  1  0  0  0  0
 12 13  1  0  0  0  0
 13 14  1  0  0  0  0
 14 15  1  0  0  0  0
 15 16  1  0  0  0  0
 16 17  1  0  0  0  0
 17 18  1  0  0  0  0
 18 19  1  0  0  0  0
 19 20  1  0  0  0  0
 20 21  2  0  0  0  0
 20 22  1  0  0  0  0
 22 23  1  1  0  0  0
 22 24  1  0  0  0  0
 24 25  1  0  0  0  0
M  END
> <DRUGBANK_ID>
DB03831

> <DRUG_GROUPS>
experimental

> <GENERIC_NAME>
1-Monooleoyl-Rac-Glycerol

> <CHEMICAL_FORMULA>
C21H40O4

> <MOLECULAR_WEIGHT>
356.5399

> <EXACT_MASS>
356.292659768

> <IUPAC_NAME>
(9E)-octadec-9-en-1-yl (2S)-2,3-dihydroxypropanoate

> <IUPAC_TRADITIONAL_NAME>
1-monooleoyl-rac-glycerol

> <INCHI_IDENTIFIER>
InChI=1S/C21H40O4/c1-2-3-4-5-6-7-8-9-10-11-12-13-14-15-16-17-18-25-21(24)20(23)19-22/h9-10,20,22-23H,2-8,11-19H2,1H3/b10-9+/t20-/m0/s1

> <INCHI_KEY>
InChIKey=JPJYKWFFJCWMPK-XTXLJPNXSA-N

> <SMILES>
CCCCCCCC\C=C\CCCCCCCCOC(=O)[C@@H](O)CO

> <JCHEM_ACCEPTOR_COUNT>
3

> <JCHEM_DONOR_COUNT>
2

> <JCHEM_ACIDIC_PKA>
11.94

> <JCHEM_BASIC_PKA>
-3

> <JCHEM_PHYSIOLOGICAL_CHARGE>
0

> <ALOGPS_LOGP>
6.54

> <JCHEM_LOGP>
5.81

> <ALOGPS_LOGS>
-5.5

> <JCHEM_POLARIZABILITY>
45.84

> <JCHEM_POLAR_SURFACE_AREA>
66.76

> <JCHEM_REFRACTIVITY>
104.56

> <JCHEM_ROTATABLE_BOND_COUNT>
19

> <ALOGPS_SOLUBILITY>
1.05e-03 g/l __ 

$$$$
