
  Mrv0541 02231217042D          

  8  7  0  0  0  0            999 V2000
    1.7605    1.8414    0.0000 N   0  0  0  0  0  0  0  0  0  0  0  0
    2.4750    1.4289    0.0000 C   0  0  0  0  0  0  0  0  0  0  0  0
    2.4750    0.6039    0.0000 N   0  3  0  0  0  0  0  0  0  0  0  0
    3.1895    1.8414    0.0000 N   0  0  0  0  0  0  0  0  0  0  0  0
    3.9039    1.4289    0.0000 C   0  0  0  0  0  0  0  0  0  0  0  0
    4.6184    1.8414    0.0000 C   0  0  0  0  0  0  0  0  0  0  0  0
    5.3329    1.4289    0.0000 C   0  0  0  0  0  0  0  0  0  0  0  0
    6.0474    1.8414    0.0000 O   0  0  0  0  0  0  0  0  0  0  0  0
  1  2  1  0  0  0  0
  2  3  2  0  0  0  0
  2  4  1  0  0  0  0
  4  5  1  0  0  0  0
  5  6  1  0  0  0  0
  6  7  1  0  0  0  0
  7  8  1  0  0  0  0
M  END
> <DRUGBANK_ID>
DB03637

> <DRUG_GROUPS>
experimental

> <GENERIC_NAME>
Guanidine-3-Propanol

> <CHEMICAL_FORMULA>
C4H12N3O

> <MOLECULAR_WEIGHT>
118.1576

> <EXACT_MASS>
118.098037021

> <IUPAC_NAME>
{amino[(3-hydroxypropyl)amino]methylidene}azanium

> <IUPAC_TRADITIONAL_NAME>
guanidine-3-propanol

> <INCHI_IDENTIFIER>
InChI=1S/C4H11N3O/c5-4(6)7-2-1-3-8/h8H,1-3H2,(H4,5,6,7)/p+1

> <INCHI_KEY>
InChIKey=JDXXTKLHHZMVIO-UHFFFAOYSA-O

> <SMILES>
NC(=[NH2+])NCCCO

> <JCHEM_ACCEPTOR_COUNT>
3

> <JCHEM_DONOR_COUNT>
4

> <JCHEM_ACIDIC_PKA>
15.93

> <JCHEM_BASIC_PKA>
12.6

> <JCHEM_PHYSIOLOGICAL_CHARGE>
1

> <ALOGPS_LOGP>
-0.74

> <JCHEM_LOGP>
-1.6

> <ALOGPS_LOGS>
0.15

> <JCHEM_POLARIZABILITY>
12.93

> <JCHEM_POLAR_SURFACE_AREA>
83.87

> <JCHEM_REFRACTIVITY>
42.59

> <JCHEM_ROTATABLE_BOND_COUNT>
3

> <ALOGPS_SOLUBILITY>
2.19e+02 g/l __ 

$$$$
