
  Mrv0541 02231216522D          

 17 17  0  0  0  0            999 V2000
    2.8579    2.4750    0.0000 C   0  0  0  0  0  0  0  0  0  0  0  0
    2.1434    2.0625    0.0000 C   0  0  0  0  0  0  0  0  0  0  0  0
    1.4289    2.4750    0.0000 O   0  0  0  0  0  0  0  0  0  0  0  0
    2.1434    1.2375    0.0000 N   0  0  0  0  0  0  0  0  0  0  0  0
    1.4289    0.8250    0.0000 C   0  0  0  0  0  0  0  0  0  0  0  0
    1.4289    0.0000    0.0000 C   0  0  0  0  0  0  0  0  0  0  0  0
    0.7145   -0.4125    0.0000 C   0  0  0  0  0  0  0  0  0  0  0  0
    0.0000    0.0000    0.0000 C   0  0  0  0  0  0  0  0  0  0  0  0
    0.0000    0.8250    0.0000 C   0  0  0  0  0  0  0  0  0  0  0  0
    0.7145    1.2375    0.0000 C   0  0  0  0  0  0  0  0  0  0  0  0
    0.7145    2.0625    0.0000 N   0  0  0  0  0  0  0  0  0  0  0  0
    0.0000    2.4750    0.0000 C   0  0  0  0  0  0  0  0  0  0  0  0
   -0.7145    2.0625    0.0000 N   0  0  0  0  0  0  0  0  0  0  0  0
    0.0000    3.3000    0.0000 N   0  0  0  0  0  0  0  0  0  0  0  0
   -0.7145   -0.4125    0.0000 C   0  0  0  0  0  0  0  0  0  0  0  0
   -0.7145   -1.2375    0.0000 O   0  0  0  0  0  0  0  0  0  0  0  0
   -1.4289    0.0000    0.0000 O   0  0  0  0  0  0  0  0  0  0  0  0
  1  2  1  0  0  0  0
  2  3  2  0  0  0  0
  2  4  1  0  0  0  0
  4  5  1  0  0  0  0
  5  6  2  0  0  0  0
  6  7  1  0  0  0  0
  7  8  2  0  0  0  0
  8  9  1  0  0  0  0
  9 10  2  0  0  0  0
  5 10  1  0  0  0  0
 10 11  1  0  0  0  0
 11 12  1  0  0  0  0
 12 13  1  0  0  0  0
 12 14  1  0  0  0  0
  8 15  1  0  0  0  0
 15 16  1  0  0  0  0
 15 17  2  0  0  0  0
M  END
> <DRUGBANK_ID>
DB03342

> <DRUG_GROUPS>
experimental

> <GENERIC_NAME>
4-(Acetylamino)-3-Guanidinobenzoic Acid

> <CHEMICAL_FORMULA>
C10H14N4O3

> <MOLECULAR_WEIGHT>
238.2432

> <EXACT_MASS>
238.106590334

> <IUPAC_NAME>
3-[(diaminomethyl)amino]-4-acetamidobenzoic acid

> <IUPAC_TRADITIONAL_NAME>
3-[(diaminomethyl)amino]-4-acetamidobenzoic acid

> <INCHI_IDENTIFIER>
InChI=1S/C10H14N4O3/c1-5(15)13-7-3-2-6(9(16)17)4-8(7)14-10(11)12/h2-4,10,14H,11-12H2,1H3,(H,13,15)(H,16,17)

> <INCHI_KEY>
InChIKey=HIXHCUDMJUERSJ-UHFFFAOYSA-N

> <SMILES>
CC(=O)NC1=CC=C(C=C1NC(N)N)C(O)=O

> <JCHEM_ACCEPTOR_COUNT>
6

> <JCHEM_DONOR_COUNT>
5

> <JCHEM_ACIDIC_PKA>
4.78

> <JCHEM_BASIC_PKA>
5.91

> <JCHEM_PHYSIOLOGICAL_CHARGE>
-1

> <ALOGPS_LOGP>
-2.3

> <JCHEM_LOGP>
-1.8

> <ALOGPS_LOGS>
-2.3

> <JCHEM_POLARIZABILITY>
23.86

> <JCHEM_POLAR_SURFACE_AREA>
130.47

> <JCHEM_REFRACTIVITY>
64.51

> <JCHEM_ROTATABLE_BOND_COUNT>
4

> <ALOGPS_SOLUBILITY>
1.28e+00 g/l __ 

$$$$
