
  Mrv0541 02231217192D          

 10  9  0  0  1  0            999 V2000
    1.7605    1.8414    0.0000 C    0  0  0  0  0  0  0  0  0  0  0  0
    2.4750    1.4289    0.0000 As   0  0  0  0  0  0  0  0  0  0  0  0
    2.4750    0.6039    0.0000 C    0  0  0  0  0  0  0  0  0  0  0  0
    3.1895    1.8414    0.0000 S    0  0  0  0  0  0  0  0  0  0  0  0
    3.9039    1.4289    0.0000 C    0  0  0  0  0  0  0  0  0  0  0  0
    4.6184    1.8414    0.0000 C    0  0  1  0  0  0  0  0  0  0  0  0
    4.6184    2.6664    0.0000 N    0  0  0  0  0  0  0  0  0  0  0  0
    5.3329    1.4289    0.0000 C    0  0  0  0  0  0  0  0  0  0  0  0
    6.0474    1.8414    0.0000 O    0  0  0  0  0  0  0  0  0  0  0  0
    5.3329    0.6039    0.0000 O    0  0  0  0  0  0  0  0  0  0  0  0
  1  2  1  0  0  0  0
  2  3  1  0  0  0  0
  2  4  1  0  0  0  0
  4  5  1  0  0  0  0
  5  6  1  0  0  0  0
  6  7  1  1  0  0  0
  6  8  1  0  0  0  0
  8  9  1  0  0  0  0
  8 10  2  0  0  0  0
M  END
> <DRUGBANK_ID>
DB03963

> <DRUG_GROUPS>
experimental

> <GENERIC_NAME>
S-(Dimethylarsenic)Cysteine

> <CHEMICAL_FORMULA>
C5H12AsNO2S

> <MOLECULAR_WEIGHT>
225.141

> <EXACT_MASS>
224.98047074

> <IUPAC_NAME>
(2S)-2-amino-3-[(dimethylarsanyl)sulfanyl]propanoic acid

> <IUPAC_TRADITIONAL_NAME>
(2S)-2-amino-3-[(dimethylarsanyl)sulfanyl]propanoic acid

> <INCHI_IDENTIFIER>
InChI=1S/C5H12AsNO2S/c1-6(2)10-3-4(7)5(8)9/h4H,3,7H2,1-2H3,(H,8,9)/t4-/m1/s1

> <INCHI_KEY>
InChIKey=UKLXSOVDMSQHMM-SCSAIBSYSA-N

> <SMILES>
C[As](C)SC[C@@H](N)C(O)=O

> <JCHEM_ACCEPTOR_COUNT>
3

> <JCHEM_DONOR_COUNT>
2

> <JCHEM_ACIDIC_PKA>
1.95

> <JCHEM_BASIC_PKA>
9.14

> <JCHEM_PHYSIOLOGICAL_CHARGE>
0

> <ALOGPS_LOGP>
-2.1

> <JCHEM_LOGP>
-2.3

> <ALOGPS_LOGS>
-1.5

> <JCHEM_POLARIZABILITY>
18.85

> <JCHEM_POLAR_SURFACE_AREA>
63.32

> <JCHEM_REFRACTIVITY>
39

> <JCHEM_ROTATABLE_BOND_COUNT>
4

> <ALOGPS_SOLUBILITY>
7.58e+00 g/l __ 

$$$$
