
  Mrv0541 02231216392D          

  8  7  0  0  1  0            999 V2000
    1.9520    1.9520    0.0000 N    0  0  0  0  0  0  0  0  0  0  0  0
    1.9520    1.1270    0.0000 C    0  0  1  0  0  0  0  0  0  0  0  0
    1.2375    0.7145    0.0000 C    0  0  0  0  0  0  0  0  0  0  0  0
    0.5230    1.1270    0.0000 S    0  0  0  0  0  0  0  0  0  0  0  0
   -0.1914    0.7145    0.0000 Se   0  0  0  0  0  0  0  0  0  0  0  0
    2.6664    0.7145    0.0000 C    0  0  0  0  0  0  0  0  0  0  0  0
    3.3809    1.1270    0.0000 O    0  0  0  0  0  0  0  0  0  0  0  0
    2.6664   -0.1105    0.0000 O    0  0  0  0  0  0  0  0  0  0  0  0
  2  1  1  6  0  0  0
  2  3  1  0  0  0  0
  3  4  1  0  0  0  0
  4  5  1  0  0  0  0
  2  6  1  0  0  0  0
  6  7  1  0  0  0  0
  6  8  2  0  0  0  0
M  END
> <DRUGBANK_ID>
DB03049

> <DRUG_GROUPS>
experimental

> <GENERIC_NAME>
S-Selanyl Cysteine

> <CHEMICAL_FORMULA>
C3H7NO2SSe

> <MOLECULAR_WEIGHT>
200.12

> <EXACT_MASS>
200.936270991

> <IUPAC_NAME>
(2R)-2-amino-3-(selanylsulfanyl)propanoic acid

> <IUPAC_TRADITIONAL_NAME>
S-selanyl cysteine

> <INCHI_IDENTIFIER>
InChI=1S/C3H7NO2SSe/c4-2(1-7-8)3(5)6/h2,8H,1,4H2,(H,5,6)/t2-/m0/s1

> <INCHI_KEY>
InChIKey=KRUPEGHZMWTFPP-REOHCLBHSA-N

> <SMILES>
N[C@@H](CS[SeH])C(O)=O

> <JCHEM_ACCEPTOR_COUNT>
3

> <JCHEM_DONOR_COUNT>
2

> <JCHEM_ACIDIC_PKA>
1.17

> <JCHEM_BASIC_PKA>
9.05

> <JCHEM_PHYSIOLOGICAL_CHARGE>
0

> <ALOGPS_LOGP>
-2.9

> <JCHEM_LOGP>
-3.7

> <ALOGPS_LOGS>
-0.54

> <JCHEM_POLARIZABILITY>
14

> <JCHEM_POLAR_SURFACE_AREA>
63.32

> <JCHEM_REFRACTIVITY>
41.35

> <JCHEM_ROTATABLE_BOND_COUNT>
3

> <ALOGPS_SOLUBILITY>
5.75e+01 g/l __ 

$$$$
