
  Mrv0541 02231216512D          

 14 15  0  0  0  0            999 V2000
    4.0668    2.3479    0.0000 Cl   0  0  0  0  0  0  0  0  0  0  0  0
    3.3523    1.9354    0.0000 C    0  0  0  0  0  0  0  0  0  0  0  0
    3.3523    1.1104    0.0000 C    0  0  0  0  0  0  0  0  0  0  0  0
    4.0668    0.6979    0.0000 Cl   0  0  0  0  0  0  0  0  0  0  0  0
    2.6378    0.6979    0.0000 C    0  0  0  0  0  0  0  0  0  0  0  0
    2.6378   -0.1271    0.0000 Cl   0  0  0  0  0  0  0  0  0  0  0  0
    1.9233    1.1104    0.0000 C    0  0  0  0  0  0  0  0  0  0  0  0
    1.1387    0.8555    0.0000 C    0  0  0  0  0  0  0  0  0  0  0  0
    0.8838    0.0709    0.0000 O    0  0  0  0  0  0  0  0  0  0  0  0
    0.6538    1.5229    0.0000 O    0  0  0  0  0  0  0  0  0  0  0  0
    1.1387    2.1904    0.0000 C    0  0  0  0  0  0  0  0  0  0  0  0
    1.9233    1.9354    0.0000 C    0  0  0  0  0  0  0  0  0  0  0  0
    2.6378    2.3479    0.0000 C    0  0  0  0  0  0  0  0  0  0  0  0
    2.6378    3.1729    0.0000 Cl   0  0  0  0  0  0  0  0  0  0  0  0
  1  2  1  0  0  0  0
  2  3  2  0  0  0  0
  3  4  1  0  0  0  0
  3  5  1  0  0  0  0
  5  6  1  0  0  0  0
  5  7  2  0  0  0  0
  7  8  1  0  0  0  0
  8  9  2  0  0  0  0
  8 10  1  0  0  0  0
 10 11  1  0  0  0  0
 11 12  1  0  0  0  0
  7 12  1  0  0  0  0
 12 13  2  0  0  0  0
  2 13  1  0  0  0  0
 13 14  1  0  0  0  0
M  END
> <DRUGBANK_ID>
DB03302

> <DRUG_GROUPS>
experimental

> <GENERIC_NAME>
4,5,6,7-Tetrachloro-3h-Isobenzofuran-1-One

> <CHEMICAL_FORMULA>
C8H2Cl4O2

> <MOLECULAR_WEIGHT>
271.912

> <EXACT_MASS>
269.880890136

> <IUPAC_NAME>
4,5,6,7-tetrachloro-1,3-dihydro-2-benzofuran-1-one

> <IUPAC_TRADITIONAL_NAME>
tetrachlorophthalide

> <INCHI_IDENTIFIER>
InChI=1S/C8H2Cl4O2/c9-4-2-1-14-8(13)3(2)5(10)7(12)6(4)11/h1H2

> <INCHI_KEY>
InChIKey=NMWKWBPNKPGATC-UHFFFAOYSA-N

> <SMILES>
ClC1=C2COC(=O)C2=C(Cl)C(Cl)=C1Cl

> <JCHEM_ACCEPTOR_COUNT>
1

> <JCHEM_DONOR_COUNT>
0

> <JCHEM_ACIDIC_PKA>
14.27

> <JCHEM_BASIC_PKA>
-7

> <JCHEM_PHYSIOLOGICAL_CHARGE>
0

> <ALOGPS_LOGP>
4.15

> <JCHEM_LOGP>
3.94

> <ALOGPS_LOGS>
-4.7

> <JCHEM_POLARIZABILITY>
21.65

> <JCHEM_POLAR_SURFACE_AREA>
26.3

> <JCHEM_REFRACTIVITY>
55.86

> <JCHEM_ROTATABLE_BOND_COUNT>
0

> <ALOGPS_SOLUBILITY>
5.02e-03 g/l __ 

$$$$
