
  Mrv0541 02231217062D          

 11 10  0  0  1  0            999 V2000
    1.7605    1.0164    0.0000 C    0  0  0  0  0  0  0  0  0  0  0  0
    2.4750    1.4289    0.0000 As   0  0  0  0  0  0  0  0  0  0  0  0
    2.8875    0.7145    0.0000 C    0  0  0  0  0  0  0  0  0  0  0  0
    2.0625    2.1434    0.0000 O    0  0  0  0  0  0  0  0  0  0  0  0
    3.1895    1.8414    0.0000 S    0  0  0  0  0  0  0  0  0  0  0  0
    3.9039    1.4289    0.0000 C    0  0  0  0  0  0  0  0  0  0  0  0
    4.6184    1.8414    0.0000 C    0  0  1  0  0  0  0  0  0  0  0  0
    4.6184    2.6664    0.0000 N    0  0  0  0  0  0  0  0  0  0  0  0
    5.3329    1.4289    0.0000 C    0  0  0  0  0  0  0  0  0  0  0  0
    6.0474    1.8414    0.0000 O    0  0  0  0  0  0  0  0  0  0  0  0
    5.3329    0.6039    0.0000 O    0  0  0  0  0  0  0  0  0  0  0  0
  1  2  1  0  0  0  0
  2  3  1  0  0  0  0
  2  4  2  0  0  0  0
  2  5  1  0  0  0  0
  5  6  1  0  0  0  0
  6  7  1  0  0  0  0
  7  8  1  1  0  0  0
  7  9  1  0  0  0  0
  9 10  1  0  0  0  0
  9 11  2  0  0  0  0
M  END
> <DRUGBANK_ID>
DB03676

> <DRUG_GROUPS>
experimental

> <GENERIC_NAME>
Cystein-S-Yl Cacodylate

> <CHEMICAL_FORMULA>
C5H12AsNO3S

> <MOLECULAR_WEIGHT>
241.14

> <EXACT_MASS>
240.975385362

> <IUPAC_NAME>
(2S)-2-amino-3-[(dimethylarsoryl)sulfanyl]propanoic acid

> <IUPAC_TRADITIONAL_NAME>
cystein-S-yl cacodylate

> <INCHI_IDENTIFIER>
InChI=1S/C5H12AsNO3S/c1-6(2,10)11-3-4(7)5(8)9/h4H,3,7H2,1-2H3,(H,8,9)/t4-/m1/s1

> <INCHI_KEY>
InChIKey=HBKZDQYWGRUTJX-SCSAIBSYSA-N

> <SMILES>
C[As](C)(=O)SC[C@@H](N)C(O)=O

> <JCHEM_ACCEPTOR_COUNT>
4

> <JCHEM_DONOR_COUNT>
2

> <JCHEM_ACIDIC_PKA>
1.67

> <JCHEM_BASIC_PKA>
9.05

> <JCHEM_PHYSIOLOGICAL_CHARGE>
0

> <ALOGPS_LOGP>
-2.4

> <JCHEM_LOGP>
-3.3

> <ALOGPS_LOGS>
-1.6

> <JCHEM_POLARIZABILITY>
19.38

> <JCHEM_POLAR_SURFACE_AREA>
80.39

> <JCHEM_REFRACTIVITY>
40.77

> <JCHEM_ROTATABLE_BOND_COUNT>
4

> <ALOGPS_SOLUBILITY>
6.46e+00 g/l __ 

$$$$
