
  Mrv0541 02231216492D          

 11 12  0  0  0  0            999 V2000
    0.7145    5.9411    0.0000 C   0  0  0  0  0  0  0  0  0  0  0  0
    1.4289    5.5286    0.0000 C   0  0  0  0  0  0  0  0  0  0  0  0
    1.4289    4.7036    0.0000 C   0  0  0  0  0  0  0  0  0  0  0  0
    0.7145    4.2911    0.0000 C   0  0  0  0  0  0  0  0  0  0  0  0
    0.0000    4.7036    0.0000 C   0  0  0  0  0  0  0  0  0  0  0  0
    0.0000    5.5286    0.0000 C   0  0  0  0  0  0  0  0  0  0  0  0
    0.7145    3.4661    0.0000 C   0  0  0  0  0  0  0  0  0  0  0  0
    1.3819    2.9812    0.0000 C   0  0  0  0  0  0  0  0  0  0  0  0
    1.1270    2.1965    0.0000 N   0  0  0  0  0  0  0  0  0  0  0  0
    0.3020    2.1965    0.0000 C   0  0  0  0  0  0  0  0  0  0  0  0
    0.0470    2.9812    0.0000 N   0  0  0  0  0  0  0  0  0  0  0  0
  1  2  2  0  0  0  0
  2  3  1  0  0  0  0
  3  4  2  0  0  0  0
  4  5  1  0  0  0  0
  5  6  2  0  0  0  0
  1  6  1  0  0  0  0
  4  7  1  0  0  0  0
  7  8  4  0  0  0  0
  8  9  4  0  0  0  0
  9 10  4  0  0  0  0
 10 11  4  0  0  0  0
  7 11  4  0  0  0  0
M  END
> <DRUGBANK_ID>
DB03254

> <DRUG_GROUPS>
experimental

> <GENERIC_NAME>
4-Phenyl-1h-Imidazole

> <CHEMICAL_FORMULA>
C9H7N2

> <MOLECULAR_WEIGHT>
143.1653

> <EXACT_MASS>
143.060923234

> <IUPAC_NAME>
4-phenylimidazole

> <IUPAC_TRADITIONAL_NAME>
4-phenyl-1h-imidazole

> <SMILES>
c1ncc(n1)C1=CC=CC=C1

> <JCHEM_ACCEPTOR_COUNT>
2

> <JCHEM_DONOR_COUNT>
0

> <JCHEM_BASIC_PKA>
2.3

> <JCHEM_PHYSIOLOGICAL_CHARGE>
0

> <ALOGPS_LOGP>
1.62

> <JCHEM_LOGP>
1.75

> <ALOGPS_LOGS>
-0.7

> <JCHEM_POLARIZABILITY>
15.18

> <JCHEM_POLAR_SURFACE_AREA>
25.78

> <JCHEM_REFRACTIVITY>
43.14

> <JCHEM_ROTATABLE_BOND_COUNT>
1

> <ALOGPS_SOLUBILITY>
2.89e+01 g/l __ 

$$$$
