
  Mrv0541 02231216492D          

 23 24  0  0  1  0            999 V2000
    2.8579    0.0000    0.0000 O   0  0  0  0  0  0  0  0  0  0  0  0
    2.1434   -0.4125    0.0000 C   0  0  0  0  0  0  0  0  0  0  0  0
    2.1434   -1.2375    0.0000 C   0  0  2  0  0  0  0  0  0  0  0  0
    1.4289   -1.6500    0.0000 O   0  0  0  0  0  0  0  0  0  0  0  0
    1.4289   -2.4750    0.0000 C   0  0  2  0  0  0  0  0  0  0  0  0
    0.7145   -2.8875    0.0000 S   0  0  0  0  0  0  0  0  0  0  0  0
    0.0000   -2.4750    0.0000 C   0  0  1  0  0  0  0  0  0  0  0  0
   -0.7145   -2.8875    0.0000 C   0  0  1  0  0  0  0  0  0  0  0  0
   -0.7145   -3.7125    0.0000 C   0  0  0  0  0  0  0  0  0  0  0  0
   -1.4289   -4.1250    0.0000 O   0  0  0  0  0  0  0  0  0  0  0  0
   -1.4289   -2.4750    0.0000 O   0  0  0  0  0  0  0  0  0  0  0  0
   -1.4289   -1.6500    0.0000 C   0  0  2  0  0  0  0  0  0  0  0  0
   -2.1434   -1.2375    0.0000 O   0  0  0  0  0  0  0  0  0  0  0  0
   -0.7145   -1.2375    0.0000 C   0  0  1  0  0  0  0  0  0  0  0  0
   -0.7145   -0.4125    0.0000 O   0  0  0  0  0  0  0  0  0  0  0  0
    0.0000   -1.6500    0.0000 C   0  0  2  0  0  0  0  0  0  0  0  0
    0.7145   -1.2375    0.0000 O   0  0  0  0  0  0  0  0  0  0  0  0
    2.1434   -2.8875    0.0000 C   0  0  1  0  0  0  0  0  0  0  0  0
    2.1434   -3.7125    0.0000 O   0  0  0  0  0  0  0  0  0  0  0  0
    2.8579   -2.4750    0.0000 C   0  0  2  0  0  0  0  0  0  0  0  0
    3.5724   -2.8875    0.0000 O   0  0  0  0  0  0  0  0  0  0  0  0
    2.8579   -1.6500    0.0000 C   0  0  1  0  0  0  0  0  0  0  0  0
    3.5724   -1.2375    0.0000 O   0  0  0  0  0  0  0  0  0  0  0  0
  1  2  1  0  0  0  0
  3  2  1  1  0  0  0
  3  4  1  0  0  0  0
  4  5  1  0  0  0  0
  5  6  1  1  0  0  0
  7  6  1  1  0  0  0
  7  8  1  0  0  0  0
  8  9  1  1  0  0  0
  9 10  1  0  0  0  0
  8 11  1  0  0  0  0
 11 12  1  0  0  0  0
 12 13  1  6  0  0  0
 12 14  1  0  0  0  0
 14 15  1  1  0  0  0
 14 16  1  0  0  0  0
  7 16  1  0  0  0  0
 16 17  1  6  0  0  0
  5 18  1  0  0  0  0
 18 19  1  6  0  0  0
 18 20  1  0  0  0  0
 20 21  1  1  0  0  0
 20 22  1  0  0  0  0
  3 22  1  0  0  0  0
 22 23  1  6  0  0  0
M  END
> <DRUGBANK_ID>
DB03263

> <DRUG_GROUPS>
experimental

> <GENERIC_NAME>
Thiocellobiose

> <CHEMICAL_FORMULA>
C12H22O10S

> <MOLECULAR_WEIGHT>
358.362

> <EXACT_MASS>
358.093367614

> <IUPAC_NAME>
(2S,3R,4R,5S,6R)-2-(hydroxymethyl)-6-{[(2R,3R,4S,5S,6S)-4,5,6-trihydroxy-2-(hydroxymethyl)oxan-3-yl]sulfanyl}oxane-3,4,5-triol

> <IUPAC_TRADITIONAL_NAME>
thiocellobiose

> <INCHI_IDENTIFIER>
InChI=1S/C12H22O10S/c13-1-3-5(15)6(16)9(19)12(22-3)23-10-4(2-14)21-11(20)8(18)7(10)17/h3-20H,1-2H2/t3-,4+,5-,6+,7-,8-,9-,10-,11-,12+/m0/s1

> <INCHI_KEY>
InChIKey=VDQIIPZYLPYPNM-SYQMOTIOSA-N

> <SMILES>
OC[C@@H]1O[C@H](S[C@H]2[C@@H](CO)O[C@H](O)[C@@H](O)[C@@H]2O)[C@@H](O)[C@H](O)[C@H]1O

> <JCHEM_ACCEPTOR_COUNT>
10

> <JCHEM_DONOR_COUNT>
8

> <JCHEM_ACIDIC_PKA>
11.29

> <JCHEM_BASIC_PKA>
-3

> <JCHEM_PHYSIOLOGICAL_CHARGE>
0

> <ALOGPS_LOGP>
-2.9

> <JCHEM_LOGP>
-4.4

> <ALOGPS_LOGS>
0.08

> <JCHEM_POLARIZABILITY>
33.68

> <JCHEM_POLAR_SURFACE_AREA>
180.3

> <JCHEM_REFRACTIVITY>
74.69

> <JCHEM_ROTATABLE_BOND_COUNT>
4

> <ALOGPS_SOLUBILITY>
4.31e+02 g/l __ 

$$$$
