
  Mrv0541 02231216442D          

 34 36  0  0  1  0            999 V2000
   -3.2020   -2.2726    0.0000 C   0  0  0  0  0  0  0  0  0  0  0  0
   -2.7171   -2.9400    0.0000 C   0  0  0  0  0  0  0  0  0  0  0  0
   -1.8966   -2.8538    0.0000 C   0  0  0  0  0  0  0  0  0  0  0  0
   -1.4117   -3.5212    0.0000 N   0  0  0  0  0  0  0  0  0  0  0  0
   -0.5912   -3.4350    0.0000 C   0  0  1  0  0  0  0  0  0  0  0  0
   -0.1787   -2.7205    0.0000 C   0  0  0  0  0  0  0  0  0  0  0  0
    0.6282   -2.8920    0.0000 C   0  0  1  0  0  0  0  0  0  0  0  0
    1.2413   -2.3400    0.0000 O   0  0  0  0  0  0  0  0  0  0  0  0
    0.7145   -3.7125    0.0000 C   0  0  2  0  0  0  0  0  0  0  0  0
    1.4289   -4.1250    0.0000 C   0  0  0  0  0  0  0  0  0  0  0  0
    2.1434   -3.7125    0.0000 O   0  0  0  0  0  0  0  0  0  0  0  0
    2.8579   -4.1250    0.0000 P   0  0  2  0  0  0  0  0  0  0  0  0
    3.2704   -3.4105    0.0000 O   0  0  0  0  0  0  0  0  0  0  0  0
    2.4454   -4.8395    0.0000 O   0  0  0  0  0  0  0  0  0  0  0  0
    3.5724   -4.5375    0.0000 O   0  0  0  0  0  0  0  0  0  0  0  0
    4.2868   -4.1250    0.0000 P   0  0  1  0  0  0  0  0  0  0  0  0
    3.8743   -3.4105    0.0000 O   0  0  0  0  0  0  0  0  0  0  0  0
    4.6993   -4.8395    0.0000 O   0  0  0  0  0  0  0  0  0  0  0  0
    5.0013   -3.7125    0.0000 O   0  0  0  0  0  0  0  0  0  0  0  0
    5.7158   -4.1250    0.0000 C   0  0  1  0  0  0  0  0  0  0  0  0
    6.4302   -3.7125    0.0000 O   0  0  0  0  0  0  0  0  0  0  0  0
    7.1447   -4.1250    0.0000 C   0  0  0  0  0  0  0  0  0  0  0  0
    7.1447   -4.9500    0.0000 C   0  0  2  0  0  0  0  0  0  0  0  0
    7.8592   -5.3625    0.0000 O   0  0  0  0  0  0  0  0  0  0  0  0
    6.4302   -5.3625    0.0000 C   0  0  1  0  0  0  0  0  0  0  0  0
    6.4302   -6.1875    0.0000 O   0  0  0  0  0  0  0  0  0  0  0  0
    5.7158   -4.9500    0.0000 C   0  0  2  0  0  0  0  0  0  0  0  0
    5.0013   -5.3625    0.0000 O   0  0  0  0  0  0  0  0  0  0  0  0
   -0.0392   -4.0481    0.0000 O   0  0  0  0  0  0  0  0  0  0  0  0
   -1.7473   -4.2749    0.0000 C   0  0  0  0  0  0  0  0  0  0  0  0
   -1.2624   -4.9423    0.0000 O   0  0  0  0  0  0  0  0  0  0  0  0
   -2.5678   -4.3611    0.0000 N   0  0  0  0  0  0  0  0  0  0  0  0
   -3.0527   -3.6937    0.0000 C   0  0  0  0  0  0  0  0  0  0  0  0
   -3.8732   -3.7799    0.0000 O   0  0  0  0  0  0  0  0  0  0  0  0
  1  2  1  0  0  0  0
  2  3  2  0  0  0  0
  3  4  1  0  0  0  0
  5  4  1  1  0  0  0
  5  6  1  0  0  0  0
  6  7  1  0  0  0  0
  7  8  1  1  0  0  0
  7  9  1  0  0  0  0
  9 10  1  6  0  0  0
 10 11  1  0  0  0  0
 12 11  1  1  0  0  0
 12 13  1  6  0  0  0
 12 14  2  0  0  0  0
 12 15  1  0  0  0  0
 16 15  1  6  0  0  0
 16 17  1  1  0  0  0
 16 18  2  0  0  0  0
 16 19  1  0  0  0  0
 20 19  1  1  0  0  0
 20 21  1  0  0  0  0
 21 22  1  0  0  0  0
 22 23  1  0  0  0  0
 23 24  1  6  0  0  0
 23 25  1  0  0  0  0
 25 26  1  1  0  0  0
 25 27  1  0  0  0  0
 20 27  1  0  0  0  0
 27 28  1  6  0  0  0
  9 29  1  0  0  0  0
  5 29  1  0  0  0  0
  4 30  1  0  0  0  0
 30 31  2  0  0  0  0
 30 32  1  0  0  0  0
 32 33  1  0  0  0  0
  2 33  1  0  0  0  0
 33 34  2  0  0  0  0
M  END
> <DRUGBANK_ID>
DB03161

> <DRUG_GROUPS>
experimental

> <GENERIC_NAME>
Thymidine-5'-Diphospho-Beta-D-Xylose

> <CHEMICAL_FORMULA>
C15H24N2O15P2

> <MOLECULAR_WEIGHT>
534.303

> <EXACT_MASS>
534.065191132

> <IUPAC_NAME>
{[hydroxy({[(2R,3S,4R,5S)-3,4,5-trihydroxyoxan-2-yl]oxy})phosphoryl]oxy}({[(2S,3R,5R)-3-hydroxy-5-(5-methyl-2,4-dioxo-1,2,3,4-tetrahydropyrimidin-1-yl)oxolan-2-yl]methoxy})phosphinic acid

> <IUPAC_TRADITIONAL_NAME>
[(2S,3R,5R)-3-hydroxy-5-(5-methyl-2,4-dioxo-3H-pyrimidin-1-yl)oxolan-2-yl]methoxy({hydroxy[(2R,3S,4R,5S)-3,4,5-trihydroxyoxan-2-yl]oxyphosphoryl}oxy)phosphinic acid

> <INCHI_IDENTIFIER>
InChI=1S/C15H24N2O15P2/c1-6-3-17(15(23)16-13(6)22)10-2-7(18)9(30-10)5-29-33(24,25)32-34(26,27)31-14-12(21)11(20)8(19)4-28-14/h3,7-12,14,18-21H,2,4-5H2,1H3,(H,24,25)(H,26,27)(H,16,22,23)/t7-,8+,9+,10-,11-,12+,14-/m1/s1

> <INCHI_KEY>
InChIKey=AJUADKZRQSBUAK-BYMGEYMMSA-N

> <SMILES>
CC1=CN([C@H]2C[C@@H](O)[C@H](CO[P@](O)(=O)O[P@@](O)(=O)O[C@H]3OC[C@H](O)[C@@H](O)[C@@H]3O)O2)C(=O)NC1=O

> <JCHEM_ACCEPTOR_COUNT>
12

> <JCHEM_DONOR_COUNT>
7

> <JCHEM_ACIDIC_PKA>
1.73

> <JCHEM_BASIC_PKA>
-3.2

> <JCHEM_PHYSIOLOGICAL_CHARGE>
-2

> <ALOGPS_LOGP>
-1.3

> <JCHEM_LOGP>
-3.1

> <ALOGPS_LOGS>
-1.7

> <JCHEM_POLARIZABILITY>
43.95

> <JCHEM_POLAR_SURFACE_AREA>
251.08

> <JCHEM_REFRACTIVITY>
103.34

> <JCHEM_ROTATABLE_BOND_COUNT>
8

> <ALOGPS_SOLUBILITY>
1.13e+01 g/l __ 

$$$$
