
  Mrv0541 02231216502D          

 43 45  0  0  1  0            999 V2000
   -3.6704   -5.6317    0.0000 C   0  0  0  0  0  0  0  0  0  0  0  0
   -2.9559   -6.0442    0.0000 C   0  0  0  0  0  0  0  0  0  0  0  0
   -2.9559   -6.8692    0.0000 O   0  0  0  0  0  0  0  0  0  0  0  0
   -2.2414   -5.6317    0.0000 N   0  0  0  0  0  0  0  0  0  0  0  0
   -2.2414   -4.8067    0.0000 C   0  0  1  0  0  0  0  0  0  0  0  0
   -2.9559   -4.3942    0.0000 C   0  0  2  0  0  0  0  0  0  0  0  0
   -3.6704   -4.8067    0.0000 O   0  0  0  0  0  0  0  0  0  0  0  0
   -2.9559   -3.5692    0.0000 C   0  0  0  0  0  0  0  0  0  0  0  0
   -2.2414   -3.1567    0.0000 C   0  0  1  0  0  0  0  0  0  0  0  0
   -2.7717   -2.5248    0.0000 O   0  0  0  0  0  0  0  0  0  0  0  0
   -3.5842   -2.6680    0.0000 C   0  0  1  0  0  0  0  0  0  0  0  0
   -3.8663   -3.4433    0.0000 C   0  0  1  0  0  0  0  0  0  0  0  0
   -3.3360   -4.0752    0.0000 O   0  0  0  0  0  0  0  0  0  0  0  0
   -4.6788   -3.5865    0.0000 C   0  0  2  0  0  0  0  0  0  0  0  0
   -4.9610   -4.3618    0.0000 C   0  0  0  0  0  0  0  0  0  0  0  0
   -5.7734   -4.5050    0.0000 O   0  0  0  0  0  0  0  0  0  0  0  0
   -5.2091   -2.9545    0.0000 O   0  0  0  0  0  0  0  0  0  0  0  0
   -4.9269   -2.1793    0.0000 C   0  0  1  0  0  0  0  0  0  0  0  0
   -5.4572   -1.5473    0.0000 O   0  0  0  0  0  0  0  0  0  0  0  0
   -6.2697   -1.6906    0.0000 C   0  0  1  0  0  0  0  0  0  0  0  0
   -6.5519   -2.4658    0.0000 C   0  0  2  0  0  0  0  0  0  0  0  0
   -6.0216   -3.0978    0.0000 O   0  0  0  0  0  0  0  0  0  0  0  0
   -7.3643   -2.6091    0.0000 C   0  0  1  0  0  0  0  0  0  0  0  0
   -7.6465   -3.3843    0.0000 O   0  0  0  0  0  0  0  0  0  0  0  0
   -7.8946   -1.9771    0.0000 C   0  0  2  0  0  0  0  0  0  0  0  0
   -8.7071   -2.1203    0.0000 O   0  0  0  0  0  0  0  0  0  0  0  0
   -7.6125   -1.2018    0.0000 O   0  0  0  0  0  0  0  0  0  0  0  0
   -6.8000   -1.0586    0.0000 C   0  0  1  0  0  0  0  0  0  0  0  0
   -6.5178   -0.2833    0.0000 C   0  0  0  0  0  0  0  0  0  0  0  0
   -7.0481    0.3487    0.0000 O   0  0  0  0  0  0  0  0  0  0  0  0
   -4.1145   -2.0360    0.0000 C   0  0  1  0  0  0  0  0  0  0  0  0
   -3.8323   -1.2608    0.0000 O   0  0  0  0  0  0  0  0  0  0  0  0
   -1.5269   -3.5692    0.0000 O   0  0  0  0  0  0  0  0  0  0  0  0
   -1.5269   -4.3942    0.0000 C   0  0  2  0  0  0  0  0  0  0  0  0
   -0.8125   -4.8067    0.0000 C   0  0  1  0  0  0  0  0  0  0  0  0
   -0.8125   -5.6317    0.0000 O   0  0  0  0  0  0  0  0  0  0  0  0
   -0.0980   -4.3942    0.0000 C   0  0  2  0  0  0  0  0  0  0  0  0
    0.6165   -4.8067    0.0000 O   0  0  0  0  0  0  0  0  0  0  0  0
   -0.0980   -3.5692    0.0000 C   0  0  0  0  0  0  0  0  0  0  0  0
    0.6165   -3.1567    0.0000 O   0  0  0  0  0  0  0  0  0  0  0  0
   -1.7111   -2.5248    0.0000 C   0  0  0  0  0  0  0  0  0  0  0  0
   -0.8986   -2.6680    0.0000 O   0  0  0  0  0  0  0  0  0  0  0  0
   -1.9933   -1.7495    0.0000 O   0  0  0  0  0  0  0  0  0  0  0  0
  1  2  1  0  0  0  0
  2  3  2  0  0  0  0
  2  4  1  0  0  0  0
  5  4  1  1  0  0  0
  5  6  1  0  0  0  0
  6  7  1  6  0  0  0
  6  8  1  0  0  0  0
  8  9  1  0  0  0  0
  9 10  1  1  0  0  0
 11 10  1  1  0  0  0
 11 12  1  0  0  0  0
 12 13  1  1  0  0  0
 12 14  1  0  0  0  0
 14 15  1  6  0  0  0
 15 16  1  0  0  0  0
 14 17  1  0  0  0  0
 17 18  1  0  0  0  0
 18 19  1  1  0  0  0
 20 19  1  1  0  0  0
 20 21  1  0  0  0  0
 21 22  1  6  0  0  0
 21 23  1  0  0  0  0
 23 24  1  1  0  0  0
 23 25  1  0  0  0  0
 25 26  1  6  0  0  0
 25 27  1  0  0  0  0
 27 28  1  0  0  0  0
 20 28  1  0  0  0  0
 28 29  1  1  0  0  0
 29 30  1  0  0  0  0
 18 31  1  0  0  0  0
 11 31  1  0  0  0  0
 31 32  1  1  0  0  0
  9 33  1  0  0  0  0
 33 34  1  0  0  0  0
  5 34  1  0  0  0  0
 34 35  1  6  0  0  0
 35 36  1  6  0  0  0
 35 37  1  0  0  0  0
 37 38  1  1  0  0  0
 37 39  1  0  0  0  0
 39 40  1  0  0  0  0
  9 41  1  6  0  0  0
 41 42  1  0  0  0  0
 41 43  2  0  0  0  0
M  END
> <DRUGBANK_ID>
DB03296

> <DRUG_GROUPS>
experimental

> <GENERIC_NAME>
Lactose Sialic Acid

> <SYNONYMS>


> <CHEMICAL_FORMULA>
C23H39NO19

> <MOLECULAR_WEIGHT>
633.5511

> <EXACT_MASS>
633.211628071

> <IUPAC_NAME>
(2S,4R,5S,6S)-2-{[(2S,3S,4S,5S,6S)-3,5-dihydroxy-2-(hydroxymethyl)-6-{[(2S,3S,4R,5R,6R)-4,5,6-trihydroxy-2-(hydroxymethyl)oxan-3-yl]oxy}oxan-4-yl]oxy}-5-acetamido-4-hydroxy-6-[(1S,2R)-1,2,3-trihydroxypropyl]oxane-2-carboxylic acid

> <IUPAC_TRADITIONAL_NAME>
lactose sialic acid

> <INCHI_IDENTIFIER>
InChI=1S/C23H39NO19/c1-6(28)24-11-7(29)2-23(22(37)38,42-18(11)12(31)8(30)3-25)43-19-13(32)9(4-26)40-21(16(19)35)41-17-10(5-27)39-20(36)15(34)14(17)33/h7-21,25-27,29-36H,2-5H2,1H3,(H,24,28)(H,37,38)/t7-,8-,9+,10+,11+,12+,13+,14-,15-,16+,17-,18+,19+,20-,21+,23+/m1/s1

> <INCHI_KEY>
InChIKey=CILYIEBUXJIHCO-ZPXYJZJDSA-N

> <SMILES>
CC(=O)N[C@H]1[C@H](O)C[C@@](O[C@H]2[C@@H](O)[C@H](CO)O[C@@H](O[C@@H]3[C@H](CO)O[C@@H](O)[C@H](O)[C@H]3O)[C@H]2O)(O[C@@H]1[C@@H](O)[C@H](O)CO)C(O)=O

> <JCHEM_ACCEPTOR_COUNT>
19

> <JCHEM_DONOR_COUNT>
13

> <JCHEM_ACIDIC_PKA>
2.84

> <JCHEM_BASIC_PKA>
-3.6

> <JCHEM_PHYSIOLOGICAL_CHARGE>
-1

> <ALOGPS_LOGP>
-2.7

> <JCHEM_LOGP>
-7.1

> <ALOGPS_LOGS>
-0.73

> <JCHEM_POLARIZABILITY>
58.51

> <JCHEM_POLAR_SURFACE_AREA>
335.08

> <JCHEM_REFRACTIVITY>
128.61

> <JCHEM_ROTATABLE_BOND_COUNT>
11

> <ALOGPS_SOLUBILITY>
1.17e+02 g/l __ 

$$$$
