
  Mrv0541 02231216532D          

 30 32  0  0  1  0            999 V2000
   -7.9196    2.6372    0.0000 C   0  0  0  0  0  0  0  0  0  0  0  0
   -7.2052    2.2247    0.0000 C   0  0  1  0  0  0  0  0  0  0  0  0
   -7.2052    1.3997    0.0000 O   0  0  0  0  0  0  0  0  0  0  0  0
   -6.4907    2.6372    0.0000 C   0  0  1  0  0  0  0  0  0  0  0  0
   -6.4907    3.4622    0.0000 N   0  0  0  0  0  0  0  0  0  0  0  0
   -5.7762    2.2247    0.0000 C   0  0  0  0  0  0  0  0  0  0  0  0
   -5.7762    1.3997    0.0000 O   0  0  0  0  0  0  0  0  0  0  0  0
   -5.0617    2.6372    0.0000 N   0  0  0  0  0  0  0  0  0  0  0  0
   -4.3473    2.2247    0.0000 S   0  0  0  0  0  0  0  0  0  0  0  0
   -4.7598    1.5103    0.0000 O   0  0  0  0  0  0  0  0  0  0  0  0
   -3.9348    2.9392    0.0000 O   0  0  0  0  0  0  0  0  0  0  0  0
   -3.6328    1.8122    0.0000 O   0  0  0  0  0  0  0  0  0  0  0  0
   -2.9183    2.2247    0.0000 C   0  0  0  0  0  0  0  0  0  0  0  0
   -2.2039    1.8122    0.0000 C   0  0  2  0  0  0  0  0  0  0  0  0
   -1.4502    2.1478    0.0000 O   0  0  0  0  0  0  0  0  0  0  0  0
   -0.8981    1.5347    0.0000 C   0  0  2  0  0  0  0  0  0  0  0  0
   -1.3106    0.8202    0.0000 C   0  0  2  0  0  0  0  0  0  0  0  0
   -0.9751    0.0665    0.0000 O   0  0  0  0  0  0  0  0  0  0  0  0
   -2.1176    0.9917    0.0000 C   0  0  1  0  0  0  0  0  0  0  0  0
   -2.7307    0.4397    0.0000 O   0  0  0  0  0  0  0  0  0  0  0  0
   -0.0777    1.6209    0.0000 N   0  0  0  0  0  0  0  0  0  0  0  0
    0.4744    1.0078    0.0000 C   0  0  0  0  0  0  0  0  0  0  0  0
    1.2280    1.3434    0.0000 N   0  0  0  0  0  0  0  0  0  0  0  0
    1.1418    2.1639    0.0000 C   0  0  0  0  0  0  0  0  0  0  0  0
    0.3348    2.3354    0.0000 C   0  0  0  0  0  0  0  0  0  0  0  0
    0.0799    3.1200    0.0000 N   0  0  0  0  0  0  0  0  0  0  0  0
    0.6319    3.7331    0.0000 C   0  0  0  0  0  0  0  0  0  0  0  0
    1.4389    3.5616    0.0000 N   0  0  0  0  0  0  0  0  0  0  0  0
    1.6938    2.7770    0.0000 C   0  0  0  0  0  0  0  0  0  0  0  0
    2.5008    2.6054    0.0000 N   0  0  0  0  0  0  0  0  0  0  0  0
  1  2  1  0  0  0  0
  2  3  1  6  0  0  0
  2  4  1  0  0  0  0
  4  5  1  1  0  0  0
  4  6  1  0  0  0  0
  6  7  2  0  0  0  0
  6  8  1  0  0  0  0
  8  9  1  0  0  0  0
  9 10  2  0  0  0  0
  9 11  2  0  0  0  0
  9 12  1  0  0  0  0
 12 13  1  0  0  0  0
 14 13  1  6  0  0  0
 14 15  1  0  0  0  0
 15 16  1  0  0  0  0
 16 17  1  0  0  0  0
 17 18  1  6  0  0  0
 17 19  1  0  0  0  0
 14 19  1  0  0  0  0
 19 20  1  1  0  0  0
 16 21  1  1  0  0  0
 21 22  1  0  0  0  0
 22 23  2  0  0  0  0
 23 24  1  0  0  0  0
 24 25  2  0  0  0  0
 21 25  1  0  0  0  0
 25 26  1  0  0  0  0
 26 27  2  0  0  0  0
 27 28  1  0  0  0  0
 28 29  2  0  0  0  0
 24 29  1  0  0  0  0
 29 30  1  0  0  0  0
M  END
> <DRUGBANK_ID>
DB03355

> <DRUG_GROUPS>
experimental

> <GENERIC_NAME>
5'-O-(N-(L-Threonyl)-Sulfamoyl)Adenosine

> <CHEMICAL_FORMULA>
C14H21N7O8S

> <MOLECULAR_WEIGHT>
447.424

> <EXACT_MASS>
447.117231373

> <IUPAC_NAME>
(2R,3R)-2-amino-1-[({[(2S,3R,4R,5R)-5-(6-amino-9H-purin-9-yl)-3,4-dihydroxyoxolan-2-yl]methoxy}sulfonyl)amino]-3-hydroxybutan-1-one

> <IUPAC_TRADITIONAL_NAME>
(2R,3R)-2-amino-1-({[(2S,3R,4R,5R)-5-(6-aminopurin-9-yl)-3,4-dihydroxyoxolan-2-yl]methoxysulfonyl}amino)-3-hydroxybutan-1-one

> <INCHI_IDENTIFIER>
InChI=1S/C14H21N7O8S/c1-5(22)7(15)13(25)20-30(26,27)28-2-6-9(23)10(24)14(29-6)21-4-19-8-11(16)17-3-18-12(8)21/h3-7,9-10,14,22-24H,2,15H2,1H3,(H,20,25)(H2,16,17,18)/t5-,6+,7-,9+,10-,14-/m1/s1

> <INCHI_KEY>
InChIKey=UPVAPSGKXAAHBG-UWYIUFELSA-N

> <SMILES>
C[C@@H](O)[C@@H](N)C(=O)NS(=O)(=O)OC[C@@H]1O[C@H]([C@H](O)[C@H]1O)N1C=NC2=C1N=CN=C2N

> <JCHEM_ACCEPTOR_COUNT>
13

> <JCHEM_DONOR_COUNT>
6

> <JCHEM_ACIDIC_PKA>
2.71

> <JCHEM_BASIC_PKA>
6.32

> <JCHEM_PHYSIOLOGICAL_CHARGE>
-1

> <ALOGPS_LOGP>
-1.5

> <JCHEM_LOGP>
-4.6

> <ALOGPS_LOGS>
-1.9

> <JCHEM_POLARIZABILITY>
41.05

> <JCHEM_POLAR_SURFACE_AREA>
238.03

> <JCHEM_REFRACTIVITY>
98.1

> <JCHEM_ROTATABLE_BOND_COUNT>
6

> <ALOGPS_SOLUBILITY>
5.12e+00 g/l __ 

$$$$
