
  Mrv0541 02231216372D          

 11 11  0  0  0  0            999 V2000
    0.7145   -1.2375    0.0000 N    0  0  0  0  0  0  0  0  0  0  0  0
    0.7145   -0.4125    0.0000 C    0  0  0  0  0  0  0  0  0  0  0  0
    0.0000    0.0000    0.0000 C    0  0  0  0  0  0  0  0  0  0  0  0
    0.0000    0.8250    0.0000 C    0  0  0  0  0  0  0  0  0  0  0  0
    0.7145    1.2375    0.0000 C    0  0  0  0  0  0  0  0  0  0  0  0
    1.4289    0.8250    0.0000 C    0  0  0  0  0  0  0  0  0  0  0  0
    1.4289    0.0000    0.0000 C    0  0  0  0  0  0  0  0  0  0  0  0
    0.7145    2.0625    0.0000 As   0  0  0  0  0  0  0  0  0  0  0  0
    0.7145    2.8875    0.0000 O    0  0  0  0  0  0  0  0  0  0  0  0
    1.5395    2.0625    0.0000 O    0  0  0  0  0  0  0  0  0  0  0  0
   -0.1105    2.0625    0.0000 O    0  0  0  0  0  0  0  0  0  0  0  0
  1  2  1  0  0  0  0
  2  3  2  0  0  0  0
  3  4  1  0  0  0  0
  4  5  2  0  0  0  0
  5  6  1  0  0  0  0
  6  7  2  0  0  0  0
  2  7  1  0  0  0  0
  5  8  1  0  0  0  0
  8  9  1  0  0  0  0
  8 10  1  0  0  0  0
  8 11  2  0  0  0  0
M  END
> <DRUGBANK_ID>
DB03006

> <DRUG_GROUPS>
experimental

> <GENERIC_NAME>
4-Aminophenylarsonic Acid

> <CHEMICAL_FORMULA>
C6H8AsNO3

> <MOLECULAR_WEIGHT>
217.0542

> <EXACT_MASS>
216.972014544

> <IUPAC_NAME>
(4-aminophenyl)arsonic acid

> <IUPAC_TRADITIONAL_NAME>
4-aminophenylarsonic acid

> <INCHI_IDENTIFIER>
InChI=1S/C6H8AsNO3/c8-6-3-1-5(2-4-6)7(9,10)11/h1-4H,8H2,(H2,9,10,11)

> <INCHI_KEY>
InChIKey=XKNKHVGWJDPIRJ-UHFFFAOYSA-N

> <SMILES>
NC1=CC=C(C=C1)[As](O)(O)=O

> <JCHEM_ACCEPTOR_COUNT>
4

> <JCHEM_DONOR_COUNT>
3

> <JCHEM_ACIDIC_PKA>
3.95

> <JCHEM_BASIC_PKA>
2.73

> <JCHEM_PHYSIOLOGICAL_CHARGE>
-1

> <ALOGPS_LOGP>
-0.42

> <JCHEM_LOGP>
-0.17

> <ALOGPS_LOGS>
-1.3

> <JCHEM_POLARIZABILITY>
16.29

> <JCHEM_POLAR_SURFACE_AREA>
83.55

> <JCHEM_REFRACTIVITY>
36.75

> <JCHEM_ROTATABLE_BOND_COUNT>
1

> <ALOGPS_SOLUBILITY>
1.10e+01 g/l __ 

$$$$
