
  Mrv0541 02231217192D          

 49 53  0  0  1  0            999 V2000
   -3.5724   -0.4125    0.0000 C    0  0  0  0  0  0  0  0  0  0  0  0
   -2.8579    0.0000    0.0000 O    0  0  0  0  0  0  0  0  0  0  0  0
   -2.1434   -0.4125    0.0000 C    0  0  1  0  0  0  0  0  0  0  0  0
   -1.4289    0.0000    0.0000 C    0  0  2  0  0  0  0  0  0  0  0  0
   -1.4289    0.8250    0.0000 O    0  0  0  0  0  0  0  0  0  0  0  0
   -2.1434    1.2375    0.0000 C    0  0  0  0  0  0  0  0  0  0  0  0
   -2.8579    0.8250    0.0000 O    0  0  0  0  0  0  0  0  0  0  0  0
   -2.1434    2.0625    0.0000 C    0  0  0  0  0  0  0  0  0  0  0  0
   -2.8109    2.5474    0.0000 C    0  0  0  0  0  0  0  0  0  0  0  0
   -2.5559    3.3320    0.0000 C    0  0  0  0  0  0  0  0  0  0  0  0
   -1.7309    3.3320    0.0000 C    0  0  0  0  0  0  0  0  0  0  0  0
   -1.2460    3.9995    0.0000 C    0  0  0  0  0  0  0  0  0  0  0  0
   -1.4760    2.5474    0.0000 N    0  0  0  0  0  0  0  0  0  0  0  0
   -0.7145   -0.4125    0.0000 C    0  0  1  0  0  0  0  0  0  0  0  0
    0.0000    0.0000    0.0000 O    0  0  0  0  0  0  0  0  0  0  0  0
   -0.7145   -1.2375    0.0000 C    0  0  2  0  0  0  0  0  0  0  0  0
    0.0000   -1.6500    0.0000 O    0  0  0  0  0  0  0  0  0  0  0  0
    0.7145   -1.2375    0.0000 C    0  0  0  0  0  0  0  0  0  0  0  0
    0.7145   -0.4125    0.0000 C    0  0  0  0  0  0  0  0  0  0  0  0
    1.4289    0.0000    0.0000 C    0  0  0  0  0  0  0  0  0  0  0  0
    2.1434   -0.4125    0.0000 C    0  0  0  0  0  0  0  0  0  0  0  0
    2.8579    0.0000    0.0000 C    0  0  0  0  0  0  0  0  0  0  0  0
    2.8579    0.8250    0.0000 O    0  0  0  0  0  0  0  0  0  0  0  0
    3.5724   -0.4125    0.0000 C    0  0  0  0  0  0  0  0  0  0  0  0
    4.2868    0.0000    0.0000 N    0  0  0  0  0  0  0  0  0  0  0  0
    5.0013   -0.4125    0.0000 C    0  0  0  0  0  0  0  0  0  0  0  0
    5.0013   -1.2375    0.0000 O    0  0  0  0  0  0  0  0  0  0  0  0
    5.7158    0.0000    0.0000 C    0  0  0  0  0  0  0  0  0  0  0  0
    5.7158    0.8250    0.0000 C    0  0  0  0  0  0  0  0  0  0  0  0
    6.4302    1.2375    0.0000 C    0  0  0  0  0  0  0  0  0  0  0  0
    7.1447    0.8250    0.0000 C    0  0  0  0  0  0  0  0  0  0  0  0
    7.8592    1.2375    0.0000 O    0  0  0  0  0  0  0  0  0  0  0  0
    7.1447    0.0000    0.0000 C    0  0  0  0  0  0  0  0  0  0  0  0
    7.8592   -0.4125    0.0000 C    0  0  0  0  0  0  0  0  0  0  0  0
    7.8592   -1.2375    0.0000 C    0  0  0  0  0  0  0  0  0  0  0  0
    8.5737   -1.6500    0.0000 C    0  0  0  0  0  0  0  0  0  0  0  0
    9.2881   -1.2375    0.0000 C    0  0  0  0  0  0  0  0  0  0  0  0
    8.5737   -2.4750    0.0000 C    0  0  0  0  0  0  0  0  0  0  0  0
    6.4302   -0.4125    0.0000 C    0  0  0  0  0  0  0  0  0  0  0  0
    3.5724   -1.2375    0.0000 C    0  0  0  0  0  0  0  0  0  0  0  0
    4.2868   -1.6500    0.0000 O    0  0  0  0  0  0  0  0  0  0  0  0
    2.8579   -1.6500    0.0000 O    0  0  0  0  0  0  0  0  0  0  0  0
    2.1434   -1.2375    0.0000 C    0  0  0  0  0  0  0  0  0  0  0  0
    1.4289   -1.6500    0.0000 C    0  0  0  0  0  0  0  0  0  0  0  0
    1.4289   -2.4750    0.0000 Cl   0  0  0  0  0  0  0  0  0  0  0  0
   -1.4289   -1.6500    0.0000 O    0  0  0  0  0  0  0  0  0  0  0  0
   -2.1434   -1.2375    0.0000 C    0  0  0  0  0  0  0  0  0  0  0  0
   -2.5806   -1.9371    0.0000 C    0  0  0  0  0  0  0  0  0  0  0  0
   -2.9679   -1.2663    0.0000 C    0  0  0  0  0  0  0  0  0  0  0  0
  1  2  1  0  0  0  0
  3  2  1  1  0  0  0
  3  4  1  0  0  0  0
  4  5  1  6  0  0  0
  5  6  1  0  0  0  0
  6  7  2  0  0  0  0
  6  8  1  0  0  0  0
  8  9  4  0  0  0  0
  9 10  4  0  0  0  0
 10 11  4  0  0  0  0
 11 12  1  0  0  0  0
 11 13  4  0  0  0  0
  8 13  4  0  0  0  0
  4 14  1  0  0  0  0
 14 15  1  1  0  0  0
 14 16  1  0  0  0  0
 16 17  1  6  0  0  0
 17 18  1  0  0  0  0
 18 19  2  0  0  0  0
 19 20  1  0  0  0  0
 20 21  2  0  0  0  0
 21 22  1  0  0  0  0
 22 23  1  0  0  0  0
 22 24  2  0  0  0  0
 24 25  1  0  0  0  0
 25 26  1  0  0  0  0
 26 27  2  0  0  0  0
 26 28  1  0  0  0  0
 28 29  2  0  0  0  0
 29 30  1  0  0  0  0
 30 31  2  0  0  0  0
 31 32  1  0  0  0  0
 31 33  1  0  0  0  0
 33 34  1  0  0  0  0
 34 35  1  0  0  0  0
 35 36  2  0  0  0  0
 36 37  1  0  0  0  0
 36 38  1  0  0  0  0
 33 39  2  0  0  0  0
 28 39  1  0  0  0  0
 24 40  1  0  0  0  0
 40 41  2  0  0  0  0
 40 42  1  0  0  0  0
 42 43  1  0  0  0  0
 21 43  1  0  0  0  0
 43 44  2  0  0  0  0
 18 44  1  0  0  0  0
 44 45  1  0  0  0  0
 16 46  1  0  0  0  0
 46 47  1  0  0  0  0
  3 47  1  0  0  0  0
 47 48  1  0  0  0  0
 47 49  1  0  0  0  0
M  END
> <DRUGBANK_ID>
DB03966

> <DRUG_GROUPS>
experimental

> <GENERIC_NAME>
Clorobiocin

> <SYNONYMS>


> <CHEMICAL_FORMULA>
C35H36ClN2O11

> <MOLECULAR_WEIGHT>
696.12

> <EXACT_MASS>
695.200762711

> <IUPAC_NAME>
(3S,4R,5R,6S)-6-[(8-chloro-4-hydroxy-3-{[4-hydroxy-3-(3-methylbut-2-en-1-yl)benzene]amido}-2-oxo-2H-chromen-7-yl)oxy]-5-hydroxy-3-methoxy-2,2-dimethyloxan-4-yl 5-methylpyrrole-2-carboxylate

> <IUPAC_TRADITIONAL_NAME>
(3S,4R,5R,6S)-6-({8-chloro-4-hydroxy-3-[4-hydroxy-3-(3-methylbut-2-en-1-yl)benzamido]-2-oxochromen-7-yl}oxy)-5-hydroxy-3-methoxy-2,2-dimethyloxan-4-yl 5-methylpyrrole-2-carboxylate

> <SMILES>
CO[C@H]1[C@H](OC(=O)c2ccc(C)n2)[C@@H](O)[C@H](OC2=CC=C3C(O)=C(NC(=O)C4=CC=C(O)C(CC=C(C)C)=C4)C(=O)OC3=C2Cl)OC1(C)C

> <JCHEM_ACCEPTOR_COUNT>
10

> <JCHEM_DONOR_COUNT>
4

> <JCHEM_ACIDIC_PKA>
6.51

> <JCHEM_BASIC_PKA>
3.27

> <JCHEM_PHYSIOLOGICAL_CHARGE>
-1

> <ALOGPS_LOGP>
5

> <JCHEM_LOGP>
4.51

> <ALOGPS_LOGS>
-5.3

> <JCHEM_POLARIZABILITY>
71.7

> <JCHEM_POLAR_SURFACE_AREA>
182.97

> <JCHEM_REFRACTIVITY>
177.72

> <JCHEM_ROTATABLE_BOND_COUNT>
10

> <ALOGPS_SOLUBILITY>
3.28e-03 g/l __ 

$$$$
