
  Mrv0541 02231216512D          

 10  9  0  0  1  0            999 V2000
    1.7605    1.8414    0.0000 C   0  0  0  0  0  0  0  0  0  0  0  0
    2.4750    1.4289    0.0000 C   0  0  0  0  0  0  0  0  0  0  0  0
    2.4750    0.6039    0.0000 C   0  0  0  0  0  0  0  0  0  0  0  0
    3.1895    1.8414    0.0000 C   0  0  0  0  0  0  0  0  0  0  0  0
    3.9039    1.4289    0.0000 C   0  0  2  0  0  0  0  0  0  0  0  0
    3.9039    0.6039    0.0000 N   0  0  0  0  0  0  0  0  0  0  0  0
    4.6184    1.8414    0.0000 C   0  0  0  0  0  0  0  0  0  0  0  0
    4.6184    2.6664    0.0000 O   0  0  0  0  0  0  0  0  0  0  0  0
    5.3329    1.4289    0.0000 N   0  0  0  0  0  0  0  0  0  0  0  0
    6.0474    1.8414    0.0000 O   0  0  0  0  0  0  0  0  0  0  0  0
  1  2  1  0  0  0  0
  2  3  1  0  0  0  0
  2  4  1  0  0  0  0
  4  5  1  0  0  0  0
  5  6  1  1  0  0  0
  5  7  1  0  0  0  0
  7  8  2  0  0  0  0
  7  9  1  0  0  0  0
  9 10  1  0  0  0  0
M  END
> <DRUGBANK_ID>
DB03308

> <DRUG_GROUPS>
experimental

> <GENERIC_NAME>
L-Leucyl-Hydroxylamine

> <CHEMICAL_FORMULA>
C6H14N2O2

> <MOLECULAR_WEIGHT>
146.1876

> <EXACT_MASS>
146.105527702

> <IUPAC_NAME>
(2S)-2-amino-N-hydroxy-4-methylpentanamide

> <IUPAC_TRADITIONAL_NAME>
L-leucyl-hydroxylamine

> <INCHI_IDENTIFIER>
InChI=1S/C6H14N2O2/c1-4(2)3-5(7)6(9)8-10/h4-5,10H,3,7H2,1-2H3,(H,8,9)/t5-/m0/s1

> <INCHI_KEY>
InChIKey=UJJHPFLWSVFLBE-YFKPBYRVSA-N

> <SMILES>
CC(C)C[C@H](N)C(=O)NO

> <JCHEM_ACCEPTOR_COUNT>
3

> <JCHEM_DONOR_COUNT>
3

> <JCHEM_ACIDIC_PKA>
8.9

> <JCHEM_BASIC_PKA>
7.89

> <JCHEM_PHYSIOLOGICAL_CHARGE>
1

> <ALOGPS_LOGP>
-0.42

> <JCHEM_LOGP>
-0.57

> <ALOGPS_LOGS>
-0.4

> <JCHEM_POLARIZABILITY>
15.61

> <JCHEM_POLAR_SURFACE_AREA>
75.35

> <JCHEM_REFRACTIVITY>
37.76

> <JCHEM_ROTATABLE_BOND_COUNT>
3

> <ALOGPS_SOLUBILITY>
5.86e+01 g/l __ 

$$$$
