
  Mrv0541 02231216402D          

 43 47  0  0  1  0            999 V2000
  -12.7805    1.3434    0.0000 N    0  0  0  0  0  0  0  0  0  0  0  0
  -12.0660    0.9309    0.0000 C    0  0  0  0  0  0  0  0  0  0  0  0
  -12.0660    0.1059    0.0000 O    0  0  0  0  0  0  0  0  0  0  0  0
  -11.3515    1.3434    0.0000 C    0  0  0  0  0  0  0  0  0  0  0  0
  -11.2653    2.1639    0.0000 C    0  0  0  0  0  0  0  0  0  0  0  0
  -10.4583    2.3354    0.0000 Se   0  0  0  0  0  0  0  0  0  0  0  0
  -10.0458    1.6209    0.0000 C    0  0  0  0  0  0  0  0  0  0  0  0
  -10.5978    1.0078    0.0000 N    0  0  0  0  0  0  0  0  0  0  0  0
   -9.2253    1.5347    0.0000 C    0  0  2  0  0  0  0  0  0  0  0  0
   -8.6733    2.1478    0.0000 O    0  0  0  0  0  0  0  0  0  0  0  0
   -7.9196    1.8122    0.0000 C    0  0  1  0  0  0  0  0  0  0  0  0
   -7.2052    2.2247    0.0000 C    0  0  0  0  0  0  0  0  0  0  0  0
   -6.4907    1.8122    0.0000 O    0  0  0  0  0  0  0  0  0  0  0  0
   -5.7762    2.2247    0.0000 P    0  0  2  0  0  0  0  0  0  0  0  0
   -5.3637    1.5103    0.0000 O    0  0  0  0  0  0  0  0  0  0  0  0
   -6.1887    2.9392    0.0000 O    0  0  0  0  0  0  0  0  0  0  0  0
   -5.0617    2.6372    0.0000 O    0  0  0  0  0  0  0  0  0  0  0  0
   -4.3473    2.2247    0.0000 P    0  0  1  0  0  0  0  0  0  0  0  0
   -4.7598    1.5103    0.0000 O    0  0  0  0  0  0  0  0  0  0  0  0
   -3.9348    2.9392    0.0000 O    0  0  0  0  0  0  0  0  0  0  0  0
   -3.6328    1.8122    0.0000 O    0  0  0  0  0  0  0  0  0  0  0  0
   -2.9183    2.2247    0.0000 C    0  0  0  0  0  0  0  0  0  0  0  0
   -2.2039    1.8122    0.0000 C    0  0  2  0  0  0  0  0  0  0  0  0
   -1.4502    2.1478    0.0000 O    0  0  0  0  0  0  0  0  0  0  0  0
   -0.8981    1.5347    0.0000 C    0  0  2  0  0  0  0  0  0  0  0  0
   -1.3106    0.8202    0.0000 C    0  0  2  0  0  0  0  0  0  0  0  0
   -0.9751    0.0665    0.0000 O    0  0  0  0  0  0  0  0  0  0  0  0
   -2.1176    0.9917    0.0000 C    0  0  1  0  0  0  0  0  0  0  0  0
   -2.7307    0.4397    0.0000 O    0  0  0  0  0  0  0  0  0  0  0  0
   -0.0777    1.6209    0.0000 N    0  0  0  0  0  0  0  0  0  0  0  0
    0.4744    1.0078    0.0000 C    0  0  0  0  0  0  0  0  0  0  0  0
    1.2280    1.3434    0.0000 N    0  0  0  0  0  0  0  0  0  0  0  0
    1.1418    2.1639    0.0000 C    0  0  0  0  0  0  0  0  0  0  0  0
    0.3348    2.3354    0.0000 C    0  0  0  0  0  0  0  0  0  0  0  0
    0.0799    3.1200    0.0000 N    0  0  0  0  0  0  0  0  0  0  0  0
    0.6319    3.7331    0.0000 C    0  0  0  0  0  0  0  0  0  0  0  0
    1.4389    3.5616    0.0000 N    0  0  0  0  0  0  0  0  0  0  0  0
    1.6938    2.7770    0.0000 C    0  0  0  0  0  0  0  0  0  0  0  0
    2.5008    2.6054    0.0000 N    0  0  0  0  0  0  0  0  0  0  0  0
   -8.0059    0.9917    0.0000 C    0  0  2  0  0  0  0  0  0  0  0  0
   -7.3928    0.4397    0.0000 O    0  0  0  0  0  0  0  0  0  0  0  0
   -8.8128    0.8202    0.0000 C    0  0  1  0  0  0  0  0  0  0  0  0
   -9.1484    0.0665    0.0000 O    0  0  0  0  0  0  0  0  0  0  0  0
  1  2  1  0  0  0  0
  2  3  2  0  0  0  0
  2  4  1  0  0  0  0
  4  5  2  0  0  0  0
  5  6  1  0  0  0  0
  6  7  1  0  0  0  0
  7  8  2  0  0  0  0
  4  8  1  0  0  0  0
  9  7  1  6  0  0  0
  9 10  1  0  0  0  0
 10 11  1  0  0  0  0
 11 12  1  1  0  0  0
 12 13  1  0  0  0  0
 14 13  1  6  0  0  0
 14 15  1  1  0  0  0
 14 16  2  0  0  0  0
 14 17  1  0  0  0  0
 18 17  1  1  0  0  0
 18 19  1  6  0  0  0
 18 20  2  0  0  0  0
 18 21  1  0  0  0  0
 21 22  1  0  0  0  0
 23 22  1  6  0  0  0
 23 24  1  0  0  0  0
 24 25  1  0  0  0  0
 25 26  1  0  0  0  0
 26 27  1  6  0  0  0
 26 28  1  0  0  0  0
 23 28  1  0  0  0  0
 28 29  1  1  0  0  0
 25 30  1  1  0  0  0
 30 31  1  0  0  0  0
 31 32  2  0  0  0  0
 32 33  1  0  0  0  0
 33 34  2  0  0  0  0
 30 34  1  0  0  0  0
 34 35  1  0  0  0  0
 35 36  2  0  0  0  0
 36 37  1  0  0  0  0
 37 38  2  0  0  0  0
 33 38  1  0  0  0  0
 38 39  1  0  0  0  0
 11 40  1  0  0  0  0
 40 41  1  6  0  0  0
 40 42  1  0  0  0  0
  9 42  1  0  0  0  0
 42 43  1  1  0  0  0
M  END
> <DRUGBANK_ID>
DB03070

> <DRUG_GROUPS>
experimental

> <GENERIC_NAME>
Selenazole-4-Carboxyamide-Adenine Dinucleotide

> <CHEMICAL_FORMULA>
C19H25N7O14P2Se

> <MOLECULAR_WEIGHT>
716.35

> <EXACT_MASS>
717.009993395

> <IUPAC_NAME>
[({[(2S,3R,4R,5R)-5-(6-amino-9H-purin-9-yl)-3,4-dihydroxyoxolan-2-yl]methoxy}(hydroxy)phosphoryl)oxy]({[(2S,3R,4R,5R)-5-(4-carbamoyl-1,3-selenazol-2-yl)-3,4-dihydroxyoxolan-2-yl]methoxy})phosphinic acid

> <IUPAC_TRADITIONAL_NAME>
{[(2S,3R,4R,5R)-5-(6-aminopurin-9-yl)-3,4-dihydroxyoxolan-2-yl]methoxy(hydroxy)phosphoryl}oxy[(2S,3R,4R,5R)-5-(4-carbamoyl-1,3-selenazol-2-yl)-3,4-dihydroxyoxolan-2-yl]methoxyphosphinic acid

> <INCHI_IDENTIFIER>
InChI=1S/C19H25N7O14P2Se/c20-15-9-17(23-4-22-15)26(5-24-9)19-13(30)11(28)8(39-19)2-37-42(34,35)40-41(32,33)36-1-7-10(27)12(29)14(38-7)18-25-6(3-43-18)16(21)31/h3-5,7-8,10-14,19,27-30H,1-2H2,(H2,21,31)(H,32,33)(H,34,35)(H2,20,22,23)/t7-,8-,10-,11-,12+,13+,14+,19+/m0/s1

> <INCHI_KEY>
InChIKey=SKNBJMQZTZPCPF-FXXOXGJPSA-N

> <SMILES>
NC(=O)C1=C[Se]C(=N1)[C@@H]1O[C@@H](CO[P@](O)(=O)O[P@@](O)(=O)OC[C@@H]2O[C@H]([C@H](O)[C@H]2O)N2C=NC3=C2N=CN=C3N)[C@H](O)[C@H]1O

> <JCHEM_ACCEPTOR_COUNT>
16

> <JCHEM_DONOR_COUNT>
8

> <JCHEM_ACIDIC_PKA>
1.86

> <JCHEM_BASIC_PKA>
5

> <JCHEM_PHYSIOLOGICAL_CHARGE>
-2

> <ALOGPS_LOGP>
-1.4

> <JCHEM_LOGP>
-7.2

> <ALOGPS_LOGS>
-2

> <JCHEM_POLARIZABILITY>
56.71

> <JCHEM_POLAR_SURFACE_AREA>
327.27

> <JCHEM_REFRACTIVITY>
145.05

> <JCHEM_ROTATABLE_BOND_COUNT>
11

> <ALOGPS_SOLUBILITY>
7.05e+00 g/l __ 

$$$$
