439236
  Mrv0541 02231216412D          

 14 14  0  0  1  0            999 V2000
    2.6150    1.0082    0.0000 P   0  0  0  0  0  0  0  0  0  0  0  0
    4.2386    0.4311    0.0000 O   0  0  0  0  0  0  0  0  0  0  0  0
    2.7865    0.2011    0.0000 O   0  0  0  0  0  0  0  0  0  0  0  0
    5.1360   -1.5059    0.0000 O   0  0  0  0  0  0  0  0  0  0  0  0
    3.3412   -1.5059    0.0000 O   0  0  0  0  0  0  0  0  0  0  0  0
    5.8622    1.0082    0.0000 O   0  0  0  0  0  0  0  0  0  0  0  0
    2.4435    1.8151    0.0000 O   0  0  0  0  0  0  0  0  0  0  0  0
    1.8081    0.8366    0.0000 O   0  0  0  0  0  0  0  0  0  0  0  0
    3.4220    1.1797    0.0000 O   0  0  0  0  0  0  0  0  0  0  0  0
    4.6511   -0.8384    0.0000 C   0  0  1  0  0  0  0  0  0  0  0  0
    3.8261   -0.8384    0.0000 C   0  0  2  0  0  0  0  0  0  0  0  0
    4.9060   -0.0538    0.0000 C   0  0  1  0  0  0  0  0  0  0  0  0
    3.5712   -0.0538    0.0000 C   0  0  2  0  0  0  0  0  0  0  0  0
    5.6907    0.2011    0.0000 C   0  0  0  0  0  0  0  0  0  0  0  0
  1  3  1  0  0  0  0
  1  7  1  0  0  0  0
  1  8  1  0  0  0  0
  1  9  2  0  0  0  0
  2 12  1  0  0  0  0
  2 13  1  0  0  0  0
 13  3  1  1  0  0  0
 10  4  1  1  0  0  0
 11  5  1  1  0  0  0
  6 14  1  0  0  0  0
 10 11  1  0  0  0  0
 10 12  1  0  0  0  0
 11 13  1  0  0  0  0
 12 14  1  6  0  0  0
M  END
> <DRUGBANK_ID>
DB03101

> <DRUG_GROUPS>
experimental

> <GENERIC_NAME>
Ribose-1-Phosphate

> <CHEMICAL_FORMULA>
C5H11O8P

> <MOLECULAR_WEIGHT>
230.1098

> <EXACT_MASS>
230.01915384

> <IUPAC_NAME>
{[(2R,3R,4S,5R)-3,4-dihydroxy-5-(hydroxymethyl)oxolan-2-yl]oxy}phosphonic acid

> <IUPAC_TRADITIONAL_NAME>
[(2R,3R,4S,5R)-3,4-dihydroxy-5-(hydroxymethyl)oxolan-2-yl]oxyphosphonic acid

> <INCHI_IDENTIFIER>
InChI=1S/C5H11O8P/c6-1-2-3(7)4(8)5(12-2)13-14(9,10)11/h2-8H,1H2,(H2,9,10,11)/t2-,3-,4-,5-/m1/s1

> <INCHI_KEY>
InChIKey=YXJDFQJKERBOBM-TXICZTDVSA-N

> <SMILES>
OC[C@H]1O[C@H](OP(O)(O)=O)[C@H](O)[C@@H]1O

> <JCHEM_ACCEPTOR_COUNT>
7

> <JCHEM_DONOR_COUNT>
5

> <JCHEM_ACIDIC_PKA>
1.16

> <JCHEM_BASIC_PKA>
-3

> <JCHEM_PHYSIOLOGICAL_CHARGE>
-2

> <ALOGPS_LOGP>
-2

> <JCHEM_LOGP>
-2.4

> <ALOGPS_LOGS>
-0.82

> <JCHEM_POLARIZABILITY>
18.17

> <JCHEM_POLAR_SURFACE_AREA>
136.68

> <JCHEM_REFRACTIVITY>
40.83

> <JCHEM_ROTATABLE_BOND_COUNT>
3

> <ALOGPS_SOLUBILITY>
3.52e+01 g/l __ 

$$$$
