
  Mrv0541 02231217012D          

 38 39  0  0  1  0            999 V2000
    0.0257    1.0356    0.0000 N   0  0  0  0  0  0  0  0  0  0  0  0
    0.1817    0.2254    0.0000 C   0  0  2  0  0  0  0  0  0  0  0  0
    0.9612   -0.0446    0.0000 N   0  0  0  0  0  0  0  0  0  0  0  0
    1.1171   -0.8547    0.0000 C   0  0  2  0  0  0  0  0  0  0  0  0
    1.8967   -1.1248    0.0000 N   0  0  0  0  0  0  0  0  0  0  0  0
    0.4935   -1.3948    0.0000 C   0  0  1  0  0  0  0  0  0  0  0  0
    0.6494   -2.2050    0.0000 C   0  0  0  0  0  0  0  0  0  0  0  0
    1.4289   -2.4750    0.0000 C   0  0  0  0  0  0  0  0  0  0  0  0
    1.5849   -3.2851    0.0000 C   0  0  0  0  0  0  0  0  0  0  0  0
    2.3644   -3.5552    0.0000 C   0  0  1  0  0  0  0  0  0  0  0  0
    2.5203   -4.3653    0.0000 C   0  0  0  0  0  0  0  0  0  0  0  0
    3.2999   -4.6354    0.0000 C   0  0  0  0  0  0  0  0  0  0  0  0
    3.4558   -5.4455    0.0000 C   0  0  0  0  0  0  0  0  0  0  0  0
    2.8321   -5.9856    0.0000 C   0  0  0  0  0  0  0  0  0  0  0  0
    2.0526   -5.7155    0.0000 C   0  0  0  0  0  0  0  0  0  0  0  0
    1.8967   -4.9054    0.0000 C   0  0  0  0  0  0  0  0  0  0  0  0
    2.9880   -6.7957    0.0000 C   0  0  0  0  0  0  0  0  0  0  0  0
    3.7676   -7.0658    0.0000 O   0  0  0  0  0  0  0  0  0  0  0  0
    2.3644   -7.3358    0.0000 N   0  0  0  0  0  0  0  0  0  0  0  0
    2.5203   -8.1459    0.0000 C   0  0  2  0  0  0  0  0  0  0  0  0
    1.8967   -8.6860    0.0000 C   0  0  0  0  0  0  0  0  0  0  0  0
    2.0526   -9.4962    0.0000 C   0  0  0  0  0  0  0  0  0  0  0  0
    1.4289  -10.0362    0.0000 C   0  0  0  0  0  0  0  0  0  0  0  0
    1.5849  -10.8464    0.0000 O   0  0  0  0  0  0  0  0  0  0  0  0
    0.6494   -9.7662    0.0000 O   0  0  0  0  0  0  0  0  0  0  0  0
    3.2999   -8.4160    0.0000 C   0  0  0  0  0  0  0  0  0  0  0  0
    3.4558   -9.2261    0.0000 O   0  0  0  0  0  0  0  0  0  0  0  0
    3.9235   -7.8759    0.0000 O   0  0  0  0  0  0  0  0  0  0  0  0
    2.9880   -3.0151    0.0000 C   0  0  0  0  0  0  0  0  0  0  0  0
    3.5281   -3.6387    0.0000 O   0  0  0  0  0  0  0  0  0  0  0  0
    2.4480   -2.3914    0.0000 O   0  0  0  0  0  0  0  0  0  0  0  0
    3.6117   -2.4750    0.0000 C   0  0  0  0  0  0  0  0  0  0  0  0
    4.1518   -3.0986    0.0000 F   0  0  0  0  0  0  0  0  0  0  0  0
    3.0716   -1.8514    0.0000 F   0  0  0  0  0  0  0  0  0  0  0  0
    4.2353   -1.9349    0.0000 F   0  0  0  0  0  0  0  0  0  0  0  0
   -0.2861   -1.1248    0.0000 C   0  0  0  0  0  0  0  0  0  0  0  0
   -0.9097   -1.6649    0.0000 O   0  0  0  0  0  0  0  0  0  0  0  0
   -0.4420   -0.3146    0.0000 N   0  0  0  0  0  0  0  0  0  0  0  0
  2  1  1  6  0  0  0
  2  3  1  0  0  0  0
  3  4  1  0  0  0  0
  4  5  1  6  0  0  0
  4  6  1  0  0  0  0
  6  7  1  1  0  0  0
  7  8  1  0  0  0  0
  8  9  1  0  0  0  0
  9 10  1  0  0  0  0
 10 11  1  0  0  0  0
 11 12  2  0  0  0  0
 12 13  1  0  0  0  0
 13 14  2  0  0  0  0
 14 15  1  0  0  0  0
 15 16  2  0  0  0  0
 11 16  1  0  0  0  0
 14 17  1  0  0  0  0
 17 18  2  0  0  0  0
 17 19  1  0  0  0  0
 20 19  1  1  0  0  0
 20 21  1  0  0  0  0
 21 22  1  0  0  0  0
 22 23  1  0  0  0  0
 23 24  1  0  0  0  0
 23 25  2  0  0  0  0
 20 26  1  0  0  0  0
 26 27  1  0  0  0  0
 26 28  2  0  0  0  0
 10 29  1  6  0  0  0
 29 30  1  0  0  0  0
 29 31  1  0  0  0  0
 29 32  1  0  0  0  0
 32 33  1  0  0  0  0
 32 34  1  0  0  0  0
 32 35  1  0  0  0  0
  6 36  1  0  0  0  0
 36 37  2  0  0  0  0
 36 38  1  0  0  0  0
  2 38  1  0  0  0  0
M  END
> <DRUGBANK_ID>
DB03546

> <DRUG_GROUPS>
experimental

> <GENERIC_NAME>
10-CF3C(OH)2-DDACTHF

> <SYNONYMS>


> <CHEMICAL_FORMULA>
C22H30F3N5O8

> <MOLECULAR_WEIGHT>
549.4975

> <EXACT_MASS>
549.204647576

> <IUPAC_NAME>
(2R)-2-({4-[(3S)-6-[(2R,4S,5R)-2,4-diamino-6-oxo-1,3-diazinan-5-yl]-1,1,1-trifluoro-2,2-dihydroxyhexan-3-yl]phenyl}formamido)pentanedioic acid

> <IUPAC_TRADITIONAL_NAME>
10-CF3C(OH)2-ddacthf

> <INCHI_IDENTIFIER>
InChI=1S/C22H30F3N5O8/c23-22(24,25)21(37,38)13(3-1-2-12-16(26)29-20(27)30-18(12)34)10-4-6-11(7-5-10)17(33)28-14(19(35)36)8-9-15(31)32/h4-7,12-14,16,20,29,37-38H,1-3,8-9,26-27H2,(H,28,33)(H,30,34)(H,31,32)(H,35,36)/t12-,13+,14-,16+,20-/m1/s1

> <INCHI_KEY>
InChIKey=KOLDLUFBEMUZIM-WUAYEBGVSA-N

> <SMILES>
N[C@@H]1N[C@H](N)[C@@H](CCC[C@@H](C2=CC=C(C=C2)C(=O)N[C@H](CCC(O)=O)C(O)=O)C(O)(O)C(F)(F)F)C(=O)N1

> <JCHEM_ACCEPTOR_COUNT>
11

> <JCHEM_DONOR_COUNT>
9

> <JCHEM_ACIDIC_PKA>
2.84

> <JCHEM_BASIC_PKA>
7.33

> <JCHEM_PHYSIOLOGICAL_CHARGE>
-1

> <ALOGPS_LOGP>
-2.3

> <JCHEM_LOGP>
-3.8

> <ALOGPS_LOGS>
-2.7

> <JCHEM_POLARIZABILITY>
50.66

> <JCHEM_POLAR_SURFACE_AREA>
237.33

> <JCHEM_REFRACTIVITY>
122.56

> <JCHEM_ROTATABLE_BOND_COUNT>
13

> <ALOGPS_SOLUBILITY>
1.04e+00 g/l __ 

$$$$
