
  Mrv0541 02231216502D          

 10 10  0  0  1  0            999 V2000
    0.0000    3.3000    0.0000 O   0  0  0  0  0  0  0  0  0  0  0  0
    0.0000    2.4750    0.0000 S   0  0  1  0  0  0  0  0  0  0  0  0
   -0.7145    2.0625    0.0000 O   0  0  0  0  0  0  0  0  0  0  0  0
    0.7145    2.0625    0.0000 C   0  0  0  0  0  0  0  0  0  0  0  0
    0.7145    1.2375    0.0000 C   0  0  0  0  0  0  0  0  0  0  0  0
    1.4289    0.8250    0.0000 C   0  0  0  0  0  0  0  0  0  0  0  0
    1.4289    0.0000    0.0000 C   0  0  0  0  0  0  0  0  0  0  0  0
    0.7145   -0.4125    0.0000 C   0  0  0  0  0  0  0  0  0  0  0  0
    0.0000    0.0000    0.0000 C   0  0  0  0  0  0  0  0  0  0  0  0
    0.0000    0.8250    0.0000 C   0  0  0  0  0  0  0  0  0  0  0  0
  2  1  1  6  0  0  0
  2  3  2  0  0  0  0
  2  4  1  0  0  0  0
  4  5  1  0  0  0  0
  5  6  2  0  0  0  0
  6  7  1  0  0  0  0
  7  8  2  0  0  0  0
  8  9  1  0  0  0  0
  9 10  2  0  0  0  0
  5 10  1  0  0  0  0
M  END
> <DRUGBANK_ID>
DB03297

> <DRUG_GROUPS>
experimental

> <GENERIC_NAME>
Benzylsulfinic Acid

> <CHEMICAL_FORMULA>
C7H8O2S

> <MOLECULAR_WEIGHT>
156.202

> <EXACT_MASS>
156.02450019

> <IUPAC_NAME>
(R)-phenylmethanesulfinic acid

> <IUPAC_TRADITIONAL_NAME>
benzylsulfinic acid

> <INCHI_IDENTIFIER>
InChI=1S/C7H8O2S/c8-10(9)6-7-4-2-1-3-5-7/h1-5H,6H2,(H,8,9)

> <INCHI_KEY>
InChIKey=NVSONFIVLCXXDH-UHFFFAOYSA-N

> <SMILES>
O[S@@](=O)CC1=CC=CC=C1

> <JCHEM_ACCEPTOR_COUNT>
2

> <JCHEM_DONOR_COUNT>
1

> <JCHEM_ACIDIC_PKA>
0.088

> <JCHEM_PHYSIOLOGICAL_CHARGE>
-1

> <ALOGPS_LOGP>
0.64

> <JCHEM_LOGP>
1.18

> <ALOGPS_LOGS>
-1.3

> <JCHEM_POLARIZABILITY>
15.39

> <JCHEM_POLAR_SURFACE_AREA>
37.3

> <JCHEM_REFRACTIVITY>
40.24

> <JCHEM_ROTATABLE_BOND_COUNT>
2

> <ALOGPS_SOLUBILITY>
8.47e+00 g/l __ 

$$$$
