
  Mrv0541 02231217082D          

 21 22  0  0  1  0            999 V2000
    0.7145   -0.4125    0.0000 O   0  0  0  0  0  0  0  0  0  0  0  0
    0.7145   -1.2375    0.0000 C   0  0  1  0  0  0  0  0  0  0  0  0
    1.3819   -1.7224    0.0000 C   0  0  2  0  0  0  0  0  0  0  0  0
    2.1665   -1.4675    0.0000 C   0  0  0  0  0  0  0  0  0  0  0  0
    2.3381   -0.6605    0.0000 O   0  0  0  0  0  0  0  0  0  0  0  0
    3.1227   -0.4056    0.0000 P   0  0  0  0  0  0  0  0  0  0  0  0
    3.9073   -0.1506    0.0000 O   0  0  0  0  0  0  0  0  0  0  0  0
    2.8677    0.3790    0.0000 O   0  0  0  0  0  0  0  0  0  0  0  0
    3.3776   -1.1902    0.0000 O   0  0  0  0  0  0  0  0  0  0  0  0
    1.1270   -2.5070    0.0000 O   0  0  0  0  0  0  0  0  0  0  0  0
    0.3020   -2.5070    0.0000 C   0  0  2  0  0  0  0  0  0  0  0  0
    0.0470   -1.7224    0.0000 C   0  0  2  0  0  0  0  0  0  0  0  0
   -0.7376   -1.4675    0.0000 O   0  0  0  0  0  0  0  0  0  0  0  0
   -0.1830   -3.1745    0.0000 N   0  0  0  0  0  0  0  0  0  0  0  0
    0.1526   -3.9282    0.0000 N   0  0  0  0  0  0  0  0  0  0  0  0
   -0.3323   -4.5956    0.0000 C   0  0  0  0  0  0  0  0  0  0  0  0
   -1.1528   -4.5094    0.0000 C   0  0  0  0  0  0  0  0  0  0  0  0
   -1.6377   -5.1768    0.0000 O   0  0  0  0  0  0  0  0  0  0  0  0
   -1.4884   -3.7557    0.0000 N   0  0  0  0  0  0  0  0  0  0  0  0
   -1.0034   -3.0882    0.0000 C   0  0  0  0  0  0  0  0  0  0  0  0
   -1.3390   -2.3346    0.0000 O   0  0  0  0  0  0  0  0  0  0  0  0
  2  1  1  1  0  0  0
  2  3  1  0  0  0  0
  3  4  1  6  0  0  0
  4  5  1  0  0  0  0
  5  6  1  0  0  0  0
  6  7  1  0  0  0  0
  6  8  1  0  0  0  0
  6  9  2  0  0  0  0
  3 10  1  0  0  0  0
 10 11  1  0  0  0  0
 11 12  1  0  0  0  0
  2 12  1  0  0  0  0
 12 13  1  6  0  0  0
 11 14  1  1  0  0  0
 14 15  1  0  0  0  0
 15 16  2  0  0  0  0
 16 17  1  0  0  0  0
 17 18  2  0  0  0  0
 17 19  1  0  0  0  0
 19 20  1  0  0  0  0
 14 20  1  0  0  0  0
 20 21  2  0  0  0  0
M  END
> <DRUGBANK_ID>
DB03718

> <DRUG_GROUPS>
experimental

> <GENERIC_NAME>
6-Aza-Ump

> <CHEMICAL_FORMULA>
C8H12N3O9P

> <MOLECULAR_WEIGHT>
325.1693

> <EXACT_MASS>
325.031115509

> <IUPAC_NAME>
{[(2S,3R,4R,5R)-5-(3,5-dioxo-2,3,4,5-tetrahydro-1,2,4-triazin-2-yl)-3,4-dihydroxyoxolan-2-yl]methoxy}phosphonic acid

> <IUPAC_TRADITIONAL_NAME>
[(2S,3R,4R,5R)-5-(3,5-dioxo-4H-1,2,4-triazin-2-yl)-3,4-dihydroxyoxolan-2-yl]methoxyphosphonic acid

> <INCHI_IDENTIFIER>
InChI=1S/C8H12N3O9P/c12-4-1-9-11(8(15)10-4)7-6(14)5(13)3(20-7)2-19-21(16,17)18/h1,3,5-7,13-14H,2H2,(H,10,12,15)(H2,16,17,18)/t3-,5-,6+,7+/m0/s1

> <INCHI_KEY>
InChIKey=LRVZOSYMNMNQFR-DOAVWBMOSA-N

> <SMILES>
O[C@H]1[C@H](COP(O)(O)=O)O[C@H]([C@@H]1O)N1N=CC(=O)NC1=O

> <JCHEM_ACCEPTOR_COUNT>
9

> <JCHEM_DONOR_COUNT>
5

> <JCHEM_ACIDIC_PKA>
1.23

> <JCHEM_BASIC_PKA>
-3.7

> <JCHEM_PHYSIOLOGICAL_CHARGE>
-2

> <ALOGPS_LOGP>
-1.9

> <JCHEM_LOGP>
-2.5

> <ALOGPS_LOGS>
-1.3

> <JCHEM_POLARIZABILITY>
25.8

> <JCHEM_POLAR_SURFACE_AREA>
178.22

> <JCHEM_REFRACTIVITY>
61.49

> <JCHEM_ROTATABLE_BOND_COUNT>
4

> <ALOGPS_SOLUBILITY>
1.52e+01 g/l __ 

$$$$
