
  Mrv0541 02231217052D          

 37 40  0  0  1  0            999 V2000
    1.4534   -4.0827    0.0000 C   0  0  0  0  0  0  0  0  0  0  0  0
    1.4534   -3.2577    0.0000 C   0  0  0  0  0  0  0  0  0  0  0  0
    2.1678   -2.8452    0.0000 C   0  0  0  0  0  0  0  0  0  0  0  0
    0.7389   -2.8452    0.0000 C   0  0  0  0  0  0  0  0  0  0  0  0
    0.7389   -2.0202    0.0000 C   0  0  1  0  0  0  0  0  0  0  0  0
    0.0244   -1.6077    0.0000 N   0  0  0  0  0  0  0  0  0  0  0  0
   -0.6900   -2.0202    0.0000 C   0  0  0  0  0  0  0  0  0  0  0  0
   -0.6900   -2.8452    0.0000 O   0  0  0  0  0  0  0  0  0  0  0  0
   -1.4045   -1.6077    0.0000 C   0  0  0  0  0  0  0  0  0  0  0  0
   -1.4907   -0.7872    0.0000 C   0  0  0  0  0  0  0  0  0  0  0  0
   -2.2977   -0.6157    0.0000 C   0  0  0  0  0  0  0  0  0  0  0  0
   -2.7102   -1.3301    0.0000 C   0  0  0  0  0  0  0  0  0  0  0  0
   -2.1582   -1.9432    0.0000 O   0  0  0  0  0  0  0  0  0  0  0  0
   -3.5352   -1.3301    0.0000 C   0  0  0  0  0  0  0  0  0  0  0  0
   -3.9477   -0.6157    0.0000 C   0  0  0  0  0  0  0  0  0  0  0  0
   -3.5352    0.0988    0.0000 C   0  0  0  0  0  0  0  0  0  0  0  0
   -2.7102    0.0988    0.0000 C   0  0  0  0  0  0  0  0  0  0  0  0
    1.4534   -1.6077    0.0000 C   0  0  0  0  0  0  0  0  0  0  0  0
    1.4534   -0.7827    0.0000 O   0  0  0  0  0  0  0  0  0  0  0  0
    2.1678   -2.0202    0.0000 N   0  0  0  0  0  0  0  0  0  0  0  0
    2.8823   -1.6077    0.0000 C   0  0  2  0  0  0  0  0  0  0  0  0
    2.8207   -0.7850    0.0000 C   0  0  0  0  0  0  0  0  0  0  0  0
    3.4254   -0.2238    0.0000 C   0  0  0  0  0  0  0  0  0  0  0  0
    4.2412   -0.3468    0.0000 C   0  0  0  0  0  0  0  0  0  0  0  0
    4.6537   -1.0613    0.0000 N   0  0  0  0  0  0  0  0  0  0  0  0
    4.3523   -1.8292    0.0000 C   0  0  0  0  0  0  0  0  0  0  0  0
    3.5640   -2.0724    0.0000 C   0  0  0  0  0  0  0  0  0  0  0  0
    3.4410   -2.8882    0.0000 O   0  0  0  0  0  0  0  0  0  0  0  0
    5.4764   -0.9996    0.0000 S   0  0  0  0  0  0  0  0  0  0  0  0
    5.5381   -1.8223    0.0000 O   0  0  0  0  0  0  0  0  0  0  0  0
    5.4148   -0.1769    0.0000 O   0  0  0  0  0  0  0  0  0  0  0  0
    6.2991   -0.9380    0.0000 C   0  0  0  0  0  0  0  0  0  0  0  0
    6.6571   -0.1947    0.0000 C   0  0  0  0  0  0  0  0  0  0  0  0
    7.4798   -0.1330    0.0000 C   0  0  0  0  0  0  0  0  0  0  0  0
    7.9445   -0.8147    0.0000 C   0  0  0  0  0  0  0  0  0  0  0  0
    7.5865   -1.5580    0.0000 C   0  0  0  0  0  0  0  0  0  0  0  0
    6.7638   -1.6196    0.0000 N   0  0  0  0  0  0  0  0  0  0  0  0
  1  2  1  0  0  0  0
  2  3  1  0  0  0  0
  2  4  1  0  0  0  0
  4  5  1  0  0  0  0
  5  6  1  1  0  0  0
  6  7  1  0  0  0  0
  7  8  2  0  0  0  0
  7  9  1  0  0  0  0
  9 10  2  0  0  0  0
 10 11  1  0  0  0  0
 11 12  2  0  0  0  0
 12 13  1  0  0  0  0
  9 13  1  0  0  0  0
 12 14  1  0  0  0  0
 14 15  2  0  0  0  0
 15 16  1  0  0  0  0
 16 17  2  0  0  0  0
 11 17  1  0  0  0  0
  5 18  1  0  0  0  0
 18 19  2  0  0  0  0
 18 20  1  0  0  0  0
 21 20  1  6  0  0  0
 21 22  1  0  0  0  0
 22 23  1  0  0  0  0
 23 24  1  0  0  0  0
 24 25  1  0  0  0  0
 25 26  1  0  0  0  0
 26 27  1  0  0  0  0
 21 27  1  0  0  0  0
 27 28  2  0  0  0  0
 25 29  1  0  0  0  0
 29 30  2  0  0  0  0
 29 31  2  0  0  0  0
 29 32  1  0  0  0  0
 32 33  2  0  0  0  0
 33 34  1  0  0  0  0
 34 35  2  0  0  0  0
 35 36  1  0  0  0  0
 36 37  2  0  0  0  0
 32 37  1  0  0  0  0
M  END
> <DRUGBANK_ID>
DB03642

> <DRUG_GROUPS>
experimental

> <GENERIC_NAME>
Benzofuran-2-Carboxylic Acid {(S)-3-Methyl-1-[3-Oxo-1-(Pyridin-2-Ylsulfonyl)Azepan-4-Ylcarbamoyl]Butyl}Amide

> <CHEMICAL_FORMULA>
C26H30N4O6S

> <MOLECULAR_WEIGHT>
526.605

> <EXACT_MASS>
526.188605402

> <IUPAC_NAME>
(2R)-2-(1-benzofuran-2-ylformamido)-4-methyl-N-[(4R)-3-oxo-1-(pyridine-2-sulfonyl)azepan-4-yl]pentanamide

> <IUPAC_TRADITIONAL_NAME>
(2R)-2-(1-benzofuran-2-ylformamido)-4-methyl-N-[(4R)-3-oxo-1-(pyridine-2-sulfonyl)azepan-4-yl]pentanamide

> <INCHI_IDENTIFIER>
InChI=1S/C26H30N4O6S/c1-17(2)14-20(29-26(33)23-15-18-8-3-4-10-22(18)36-23)25(32)28-19-9-7-13-30(16-21(19)31)37(34,35)24-11-5-6-12-27-24/h3-6,8,10-12,15,17,19-20H,7,9,13-14,16H2,1-2H3,(H,28,32)(H,29,33)/t19-,20-/m1/s1

> <INCHI_KEY>
InChIKey=VBPPNJCVXGAZDD-WOJBJXKFSA-N

> <SMILES>
CC(C)C[C@@H](NC(=O)C1=CC2=C(O1)C=CC=C2)C(=O)N[C@@H]1CCCN(CC1=O)S(=O)(=O)C1=CC=CC=N1

> <JCHEM_ACCEPTOR_COUNT>
6

> <JCHEM_DONOR_COUNT>
2

> <JCHEM_ACIDIC_PKA>
12.03

> <JCHEM_BASIC_PKA>
-2

> <JCHEM_PHYSIOLOGICAL_CHARGE>
0

> <ALOGPS_LOGP>
2.16

> <JCHEM_LOGP>
2.37

> <ALOGPS_LOGS>
-4.1

> <JCHEM_POLARIZABILITY>
54.38

> <JCHEM_POLAR_SURFACE_AREA>
138.68

> <JCHEM_REFRACTIVITY>
136.25

> <JCHEM_ROTATABLE_BOND_COUNT>
7

> <ALOGPS_SOLUBILITY>
3.94e-02 g/l __ 

$$$$
