
  Mrv0541 02231217182D          

 23 25  0  0  1  0            999 V2000
   -1.8505    2.3190    0.0000 O    0  0  0  0  0  0  0  0  0  0  0  0
   -1.1831    1.8341    0.0000 C    0  0  1  0  0  0  0  0  0  0  0  0
   -0.3984    2.0890    0.0000 C    0  0  2  0  0  0  0  0  0  0  0  0
   -0.1435    2.8736    0.0000 C    0  0  0  0  0  0  0  0  0  0  0  0
   -0.6955    3.4867    0.0000 O    0  0  0  0  0  0  0  0  0  0  0  0
   -0.4406    4.2713    0.0000 P    0  0  0  0  0  0  0  0  0  0  0  0
   -0.1857    5.0560    0.0000 O    0  0  0  0  0  0  0  0  0  0  0  0
   -1.2252    4.5263    0.0000 O    0  0  0  0  0  0  0  0  0  0  0  0
    0.3440    4.0164    0.0000 O    0  0  0  0  0  0  0  0  0  0  0  0
    0.0865    1.4216    0.0000 O    0  0  0  0  0  0  0  0  0  0  0  0
   -0.3984    0.7541    0.0000 C    0  0  2  0  0  0  0  0  0  0  0  0
   -1.1831    1.0091    0.0000 C    0  0  2  0  0  0  0  0  0  0  0  0
   -1.8505    0.5241    0.0000 O    0  0  0  0  0  0  0  0  0  0  0  0
   -0.1435   -0.0305    0.0000 N    0  0  0  0  0  0  0  0  0  0  0  0
   -0.6284   -0.6979    0.0000 C    0  0  0  0  0  0  0  0  0  0  0  0
   -0.1435   -1.3654    0.0000 N    0  0  0  0  0  0  0  0  0  0  0  0
    0.6411   -1.1104    0.0000 C    0  0  0  0  0  0  0  0  0  0  0  0
    0.6411   -0.2854    0.0000 C    0  0  0  0  0  0  0  0  0  0  0  0
    1.3556    0.1271    0.0000 N    0  0  0  0  0  0  0  0  0  0  0  0
    2.0701   -0.2854    0.0000 C    0  0  0  0  0  0  0  0  0  0  0  0
    2.0701   -1.1104    0.0000 N    0  3  0  0  0  0  0  0  0  0  0  0
    1.3556   -1.5229    0.0000 C    0  0  0  0  0  0  0  0  0  0  0  0
    1.3556   -2.3479    0.0000 Cl   0  0  0  0  0  0  0  0  0  0  0  0
  2  1  1  1  0  0  0
  2  3  1  0  0  0  0
  3  4  1  6  0  0  0
  4  5  1  0  0  0  0
  5  6  1  0  0  0  0
  6  7  1  0  0  0  0
  6  8  1  0  0  0  0
  6  9  2  0  0  0  0
  3 10  1  0  0  0  0
 10 11  1  0  0  0  0
 11 12  1  0  0  0  0
  2 12  1  0  0  0  0
 12 13  1  6  0  0  0
 11 14  1  1  0  0  0
 14 15  1  0  0  0  0
 15 16  2  0  0  0  0
 16 17  1  0  0  0  0
 17 18  2  0  0  0  0
 14 18  1  0  0  0  0
 18 19  1  0  0  0  0
 19 20  2  0  0  0  0
 20 21  1  0  0  0  0
 21 22  2  0  0  0  0
 17 22  1  0  0  0  0
 22 23  1  0  0  0  0
M  END
> <DRUGBANK_ID>
DB03948

> <DRUG_GROUPS>
experimental

> <GENERIC_NAME>
6-Chloropurine Riboside, 5'-Monophosphate

> <CHEMICAL_FORMULA>
C10H13ClN4O7P

> <MOLECULAR_WEIGHT>
367.66

> <EXACT_MASS>
367.021038009

> <IUPAC_NAME>
6-chloro-9-[(2R,3R,4R,5S)-3,4-dihydroxy-5-[(phosphonooxy)methyl]oxolan-2-yl]-9H-purin-1-ium

> <IUPAC_TRADITIONAL_NAME>
6-chloro-9-[(2R,3R,4R,5S)-3,4-dihydroxy-5-[(phosphonooxy)methyl]oxolan-2-yl]purin-1-ium

> <INCHI_IDENTIFIER>
InChI=1S/C10H12ClN4O7P/c11-8-5-9(13-2-12-8)15(3-14-5)10-7(17)6(16)4(22-10)1-21-23(18,19)20/h2-4,6-7,10,16-17H,1H2,(H2,18,19,20)/p+1/t4-,6-,7+,10+/m0/s1

> <INCHI_KEY>
InChIKey=ALOBOMYIOYNCBS-FCIPNVEPSA-O

> <SMILES>
O[C@H]1[C@H](COP(O)(O)=O)O[C@H]([C@@H]1O)N1C=NC2=C1N=C[NH+]=C2Cl

> <JCHEM_ACCEPTOR_COUNT>
8

> <JCHEM_DONOR_COUNT>
5

> <JCHEM_ACIDIC_PKA>
1.16

> <JCHEM_BASIC_PKA>
2.09

> <JCHEM_PHYSIOLOGICAL_CHARGE>
-2

> <ALOGPS_LOGP>
-0.89

> <JCHEM_LOGP>
-2.7

> <ALOGPS_LOGS>
-2.3

> <JCHEM_POLARIZABILITY>
30.95

> <JCHEM_POLAR_SURFACE_AREA>
161.3

> <JCHEM_REFRACTIVITY>
74.49

> <JCHEM_ROTATABLE_BOND_COUNT>
4

> <ALOGPS_SOLUBILITY>
1.87e+00 g/l __ 

$$$$
