
  Mrv0541 02231216512D          

  7  6  0  0  1  0            999 V2000
    2.0625    0.7145    0.0000 N   0  0  0  0  0  0  0  0  0  0  0  0
    1.2375    0.7145    0.0000 C   0  0  1  0  0  0  0  0  0  0  0  0
    0.8250    1.4289    0.0000 C   0  0  0  0  0  0  0  0  0  0  0  0
    1.2375    2.1434    0.0000 N   0  3  0  0  0  0  0  0  0  0  0  0
    0.8250    0.0000    0.0000 C   0  0  0  0  0  0  0  0  0  0  0  0
    1.2375   -0.7145    0.0000 O   0  0  0  0  0  0  0  0  0  0  0  0
    0.0000    0.0000    0.0000 O   0  0  0  0  0  0  0  0  0  0  0  0
  2  1  1  6  0  0  0
  2  3  1  0  0  0  0
  3  4  1  0  0  0  0
  2  5  1  0  0  0  0
  5  6  1  0  0  0  0
  5  7  2  0  0  0  0
M  END
> <DRUGBANK_ID>
DB03320

> <DRUG_GROUPS>
experimental

> <GENERIC_NAME>
3-Amino-Alanine

> <CHEMICAL_FORMULA>
C3H9N2O2

> <MOLECULAR_WEIGHT>
105.1158

> <EXACT_MASS>
105.066402542

> <IUPAC_NAME>
(2S)-2-amino-2-carboxyethan-1-aminium

> <IUPAC_TRADITIONAL_NAME>
3-amino-alanine

> <INCHI_IDENTIFIER>
InChI=1S/C3H8N2O2/c4-1-2(5)3(6)7/h2H,1,4-5H2,(H,6,7)/p+1/t2-/m0/s1

> <INCHI_KEY>
InChIKey=PECYZEOJVXMISF-REOHCLBHSA-O

> <SMILES>
N[C@@H](C[NH3+])C(O)=O

> <JCHEM_ACCEPTOR_COUNT>
3

> <JCHEM_DONOR_COUNT>
3

> <JCHEM_ACIDIC_PKA>
2.1

> <JCHEM_BASIC_PKA>
9.57

> <JCHEM_PHYSIOLOGICAL_CHARGE>
0

> <ALOGPS_LOGP>
-2.9

> <JCHEM_LOGP>
-4

> <ALOGPS_LOGS>
0.1

> <JCHEM_POLARIZABILITY>
10.22

> <JCHEM_POLAR_SURFACE_AREA>
90.96

> <JCHEM_REFRACTIVITY>
34.99

> <JCHEM_ROTATABLE_BOND_COUNT>
2

> <ALOGPS_SOLUBILITY>
1.77e+02 g/l __ 

$$$$
