
  Mrv0541 02231217012D          

  9  9  0  0  0  0            999 V2000
    0.0000    3.3000    0.0000 O   0  0  0  0  0  0  0  0  0  0  0  0
    0.0000    2.4750    0.0000 C   0  0  0  0  0  0  0  0  0  0  0  0
    0.7145    2.0625    0.0000 N   0  0  0  0  0  0  0  0  0  0  0  0
    0.7145    1.2375    0.0000 C   0  0  0  0  0  0  0  0  0  0  0  0
    1.4289    0.8250    0.0000 C   0  0  0  0  0  0  0  0  0  0  0  0
    1.4289    0.0000    0.0000 C   0  0  0  0  0  0  0  0  0  0  0  0
    0.7145   -0.4125    0.0000 C   0  0  0  0  0  0  0  0  0  0  0  0
    0.0000    0.0000    0.0000 C   0  0  0  0  0  0  0  0  0  0  0  0
    0.0000    0.8250    0.0000 C   0  0  0  0  0  0  0  0  0  0  0  0
  1  2  2  0  0  0  0
  2  3  1  0  0  0  0
  3  4  1  0  0  0  0
  4  5  1  0  0  0  0
  5  6  1  0  0  0  0
  6  7  1  0  0  0  0
  7  8  1  0  0  0  0
  8  9  1  0  0  0  0
  4  9  1  0  0  0  0
M  END
> <DRUGBANK_ID>
DB03559

> <DRUG_GROUPS>
experimental

> <GENERIC_NAME>
Cyclohexylformamide

> <CHEMICAL_FORMULA>
C7H13NO

> <MOLECULAR_WEIGHT>
127.1842

> <EXACT_MASS>
127.099714043

> <IUPAC_NAME>
N-cyclohexylformamide

> <IUPAC_TRADITIONAL_NAME>
cyclohexylformamide

> <INCHI_IDENTIFIER>
InChI=1S/C7H13NO/c9-6-8-7-4-2-1-3-5-7/h6-7H,1-5H2,(H,8,9)

> <INCHI_KEY>
InChIKey=SWGXDLRCJNEEGZ-UHFFFAOYSA-N

> <SMILES>
O=CNC1CCCCC1

> <JCHEM_ACCEPTOR_COUNT>
1

> <JCHEM_DONOR_COUNT>
1

> <JCHEM_ACIDIC_PKA>
16.45

> <JCHEM_BASIC_PKA>
0.093

> <JCHEM_PHYSIOLOGICAL_CHARGE>
0

> <ALOGPS_LOGP>
1.23

> <JCHEM_LOGP>
0.94

> <ALOGPS_LOGS>
-0.83

> <JCHEM_POLARIZABILITY>
14.44

> <JCHEM_POLAR_SURFACE_AREA>
29.1

> <JCHEM_REFRACTIVITY>
35.89

> <JCHEM_ROTATABLE_BOND_COUNT>
1

> <ALOGPS_SOLUBILITY>
1.88e+01 g/l __ 

$$$$
