
  Mrv0541 02231216392D          

 39 43  0  0  0  0            999 V2000
   -0.9372    5.5036    0.0000 C   0  0  0  0  0  0  0  0  0  0  0  0
   -0.3241    4.9516    0.0000 C   0  0  0  0  0  0  0  0  0  0  0  0
    0.4605    5.2065    0.0000 C   0  0  0  0  0  0  0  0  0  0  0  0
    1.0736    4.6545    0.0000 C   0  0  0  0  0  0  0  0  0  0  0  0
    0.9021    3.8475    0.0000 C   0  0  0  0  0  0  0  0  0  0  0  0
    0.1175    3.5926    0.0000 C   0  0  0  0  0  0  0  0  0  0  0  0
   -0.4956    4.1446    0.0000 C   0  0  0  0  0  0  0  0  0  0  0  0
    1.5152    3.2955    0.0000 N   0  0  0  0  0  0  0  0  0  0  0  0
    2.3221    3.4670    0.0000 N   0  0  0  0  0  0  0  0  0  0  0  0
    2.7346    2.7525    0.0000 C   0  0  0  0  0  0  0  0  0  0  0  0
    2.1826    2.1394    0.0000 C   0  0  0  0  0  0  0  0  0  0  0  0
    1.4289    2.4750    0.0000 C   0  0  0  0  0  0  0  0  0  0  0  0
    0.7145    2.0625    0.0000 N   0  0  0  0  0  0  0  0  0  0  0  0
    0.7145    1.2375    0.0000 C   0  0  0  0  0  0  0  0  0  0  0  0
    1.4289    0.8250    0.0000 O   0  0  0  0  0  0  0  0  0  0  0  0
    0.0000    0.8250    0.0000 N   0  0  0  0  0  0  0  0  0  0  0  0
    0.0000    0.0000    0.0000 C   0  0  0  0  0  0  0  0  0  0  0  0
   -0.7145   -0.4125    0.0000 C   0  0  0  0  0  0  0  0  0  0  0  0
   -0.7145   -1.2375    0.0000 C   0  0  0  0  0  0  0  0  0  0  0  0
    0.0000   -1.6500    0.0000 C   0  0  0  0  0  0  0  0  0  0  0  0
    0.0000   -2.4750    0.0000 O   0  0  0  0  0  0  0  0  0  0  0  0
   -0.7145   -2.8875    0.0000 C   0  0  0  0  0  0  0  0  0  0  0  0
   -0.7145   -3.7125    0.0000 C   0  0  0  0  0  0  0  0  0  0  0  0
   -1.4289   -4.1250    0.0000 N   0  0  0  0  0  0  0  0  0  0  0  0
   -1.4289   -4.9500    0.0000 C   0  0  0  0  0  0  0  0  0  0  0  0
   -2.1434   -5.3625    0.0000 C   0  0  0  0  0  0  0  0  0  0  0  0
   -2.8579   -4.9500    0.0000 O   0  0  0  0  0  0  0  0  0  0  0  0
   -2.8579   -4.1250    0.0000 C   0  0  0  0  0  0  0  0  0  0  0  0
   -2.1434   -3.7125    0.0000 C   0  0  0  0  0  0  0  0  0  0  0  0
    0.7145   -1.2375    0.0000 C   0  0  0  0  0  0  0  0  0  0  0  0
    0.7145   -0.4125    0.0000 C   0  0  0  0  0  0  0  0  0  0  0  0
    1.4289    0.0000    0.0000 C   0  0  0  0  0  0  0  0  0  0  0  0
    2.1434   -0.4125    0.0000 C   0  0  0  0  0  0  0  0  0  0  0  0
    2.1434   -1.2375    0.0000 C   0  0  0  0  0  0  0  0  0  0  0  0
    1.4289   -1.6500    0.0000 C   0  0  0  0  0  0  0  0  0  0  0  0
    3.5551    2.6663    0.0000 C   0  0  0  0  0  0  0  0  0  0  0  0
    4.3756    2.5801    0.0000 C   0  0  0  0  0  0  0  0  0  0  0  0
    3.4689    1.8458    0.0000 C   0  0  0  0  0  0  0  0  0  0  0  0
    3.6414    3.4868    0.0000 C   0  0  0  0  0  0  0  0  0  0  0  0
  1  2  1  0  0  0  0
  2  3  2  0  0  0  0
  3  4  1  0  0  0  0
  4  5  2  0  0  0  0
  5  6  1  0  0  0  0
  6  7  2  0  0  0  0
  2  7  1  0  0  0  0
  5  8  1  0  0  0  0
  8  9  1  0  0  0  0
  9 10  2  0  0  0  0
 10 11  1  0  0  0  0
 11 12  2  0  0  0  0
  8 12  1  0  0  0  0
 12 13  1  0  0  0  0
 13 14  1  0  0  0  0
 14 15  2  0  0  0  0
 14 16  1  0  0  0  0
 16 17  1  0  0  0  0
 17 18  2  0  0  0  0
 18 19  1  0  0  0  0
 19 20  2  0  0  0  0
 20 21  1  0  0  0  0
 21 22  1  0  0  0  0
 22 23  1  0  0  0  0
 23 24  1  0  0  0  0
 24 25  1  0  0  0  0
 25 26  1  0  0  0  0
 26 27  1  0  0  0  0
 27 28  1  0  0  0  0
 28 29  1  0  0  0  0
 24 29  1  0  0  0  0
 20 30  1  0  0  0  0
 30 31  2  0  0  0  0
 17 31  1  0  0  0  0
 31 32  1  0  0  0  0
 32 33  2  0  0  0  0
 33 34  1  0  0  0  0
 34 35  2  0  0  0  0
 30 35  1  0  0  0  0
 10 36  1  0  0  0  0
 36 37  1  0  0  0  0
 36 38  1  0  0  0  0
 36 39  1  0  0  0  0
M  END
> <DRUGBANK_ID>
DB03044

> <DRUG_GROUPS>
experimental

> <GENERIC_NAME>
1-(5-Tert-Butyl-2-P-Tolyl-2h-Pyrazol-3-Yl)-3-[4-(2-Morpholin-4-Yl-Ethoxy)-Naphthalen-1-Yl]-Urea

> <CHEMICAL_FORMULA>
C31H37N5O3

> <MOLECULAR_WEIGHT>
527.6572

> <EXACT_MASS>
527.289640075

> <IUPAC_NAME>
3-[3-tert-butyl-1-(4-methylphenyl)-1H-pyrazol-5-yl]-1-{4-[2-(morpholin-4-yl)ethoxy]naphthalen-1-yl}urea

> <IUPAC_TRADITIONAL_NAME>
doramapimod

> <INCHI_IDENTIFIER>
InChI=1S/C31H37N5O3/c1-22-9-11-23(12-10-22)36-29(21-28(34-36)31(2,3)4)33-30(37)32-26-13-14-27(25-8-6-5-7-24(25)26)39-20-17-35-15-18-38-19-16-35/h5-14,21H,15-20H2,1-4H3,(H2,32,33,37)

> <INCHI_KEY>
InChIKey=MVCOAUNKQVWQHZ-UHFFFAOYSA-N

> <SMILES>
CC1=CC=C(C=C1)N1N=C(C=C1NC(=O)NC1=CC=C(OCCN2CCOCC2)C2=C1C=CC=C2)C(C)(C)C

> <JCHEM_ACCEPTOR_COUNT>
5

> <JCHEM_DONOR_COUNT>
2

> <JCHEM_ACIDIC_PKA>
11.46

> <JCHEM_BASIC_PKA>
6.78

> <JCHEM_PHYSIOLOGICAL_CHARGE>
0

> <ALOGPS_LOGP>
5.32

> <JCHEM_LOGP>
6.37

> <ALOGPS_LOGS>
-5.2

> <JCHEM_POLARIZABILITY>
59.73

> <JCHEM_POLAR_SURFACE_AREA>
80.65

> <JCHEM_REFRACTIVITY>
157.01

> <JCHEM_ROTATABLE_BOND_COUNT>
8

> <ALOGPS_SOLUBILITY>
3.75e-03 g/l __ 

$$$$
