
  Mrv0541 02231216412D          

 22 23  0  0  0  0            999 V2000
    1.3222    7.2402    0.0000 C   0  0  0  0  0  0  0  0  0  0  0  0
    2.0367    6.8277    0.0000 C   0  0  0  0  0  0  0  0  0  0  0  0
    2.7512    7.2402    0.0000 N   0  0  0  0  0  0  0  0  0  0  0  0
    3.4656    6.8277    0.0000 C   0  0  0  0  0  0  0  0  0  0  0  0
    3.4656    6.0027    0.0000 C   0  0  0  0  0  0  0  0  0  0  0  0
    4.1801    5.5902    0.0000 C   0  0  0  0  0  0  0  0  0  0  0  0
    4.8946    6.0027    0.0000 O   0  0  0  0  0  0  0  0  0  0  0  0
    5.6091    5.5902    0.0000 P   0  0  0  0  0  0  0  0  0  0  0  0
    6.3235    5.1777    0.0000 O   0  0  0  0  0  0  0  0  0  0  0  0
    6.0216    6.3047    0.0000 O   0  0  0  0  0  0  0  0  0  0  0  0
    5.1966    4.8757    0.0000 O   0  0  0  0  0  0  0  0  0  0  0  0
    2.7512    5.5902    0.0000 C   0  0  0  0  0  0  0  0  0  0  0  0
    2.7512    4.7652    0.0000 C   0  0  0  0  0  0  0  0  0  0  0  0
    3.4656    4.3527    0.0000 N   0  0  0  0  0  0  0  0  0  0  0  0
    3.4656    3.5277    0.0000 C   0  0  0  0  0  0  0  0  0  0  0  0
    4.1331    3.0428    0.0000 C   0  0  0  0  0  0  0  0  0  0  0  0
    3.8781    2.2581    0.0000 O   0  0  0  0  0  0  0  0  0  0  0  0
    3.0531    2.2581    0.0000 N   0  0  0  0  0  0  0  0  0  0  0  0
    2.7982    3.0428    0.0000 C   0  0  0  0  0  0  0  0  0  0  0  0
    2.0136    3.2977    0.0000 O   0  0  0  0  0  0  0  0  0  0  0  0
    2.0367    6.0027    0.0000 C   0  0  0  0  0  0  0  0  0  0  0  0
    1.3222    5.5902    0.0000 O   0  0  0  0  0  0  0  0  0  0  0  0
  1  2  1  0  0  0  0
  2  3  2  0  0  0  0
  3  4  1  0  0  0  0
  4  5  2  0  0  0  0
  5  6  1  0  0  0  0
  6  7  1  0  0  0  0
  7  8  1  0  0  0  0
  8  9  1  0  0  0  0
  8 10  1  0  0  0  0
  8 11  2  0  0  0  0
  5 12  1  0  0  0  0
 12 13  1  0  0  0  0
 13 14  1  0  0  0  0
 14 15  1  0  0  0  0
 15 16  2  0  0  0  0
 16 17  1  0  0  0  0
 17 18  1  0  0  0  0
 18 19  2  0  0  0  0
 15 19  1  0  0  0  0
 19 20  1  0  0  0  0
 12 21  2  0  0  0  0
  2 21  1  0  0  0  0
 21 22  1  0  0  0  0
M  END
> <DRUGBANK_ID>
DB03097

> <DRUG_GROUPS>
experimental

> <GENERIC_NAME>
Pmp-Hydroxyisoxazole, Pyridoxamine-5-Phosphate-Hydroxyisoxazole

> <CHEMICAL_FORMULA>
C11H14N3O7P

> <MOLECULAR_WEIGHT>
331.2185

> <EXACT_MASS>
331.056936329

> <IUPAC_NAME>
[(5-hydroxy-4-{[(3-hydroxy-1,2-oxazol-4-yl)amino]methyl}-6-methylpyridin-3-yl)methoxy]phosphonic acid

> <IUPAC_TRADITIONAL_NAME>
(5-hydroxy-4-{[(3-hydroxy-1,2-oxazol-4-yl)amino]methyl}-6-methylpyridin-3-yl)methoxyphosphonic acid

> <INCHI_IDENTIFIER>
InChI=1S/C11H14N3O7P/c1-6-10(15)8(3-13-9-5-20-14-11(9)16)7(2-12-6)4-21-22(17,18)19/h2,5,13,15H,3-4H2,1H3,(H,14,16)(H2,17,18,19)

> <INCHI_KEY>
InChIKey=PXWFNGNWQUPGPJ-UHFFFAOYSA-N

> <SMILES>
CC1=NC=C(COP(O)(O)=O)C(CNC2=CON=C2O)=C1O

> <JCHEM_ACCEPTOR_COUNT>
8

> <JCHEM_DONOR_COUNT>
5

> <JCHEM_ACIDIC_PKA>
1.75

> <JCHEM_BASIC_PKA>
5.74

> <JCHEM_PHYSIOLOGICAL_CHARGE>
-3

> <ALOGPS_LOGP>
0.14

> <JCHEM_LOGP>
-3

> <ALOGPS_LOGS>
-2.1

> <JCHEM_POLARIZABILITY>
28.89

> <JCHEM_POLAR_SURFACE_AREA>
158.17

> <JCHEM_REFRACTIVITY>
76.71

> <JCHEM_ROTATABLE_BOND_COUNT>
6

> <ALOGPS_SOLUBILITY>
2.35e+00 g/l __ 

$$$$
