
  Mrv0541 02231217132D          

  9  9  0  0  1  0            999 V2000
    0.0000    2.4750    0.0000 O   0  0  0  0  0  0  0  0  0  0  0  0
    0.7145    2.0625    0.0000 S   0  0  1  0  0  0  0  0  0  0  0  0
    1.4289    2.4750    0.0000 O   0  0  0  0  0  0  0  0  0  0  0  0
    0.7145    1.2375    0.0000 C   0  0  0  0  0  0  0  0  0  0  0  0
    1.4289    0.8250    0.0000 C   0  0  0  0  0  0  0  0  0  0  0  0
    1.4289    0.0000    0.0000 C   0  0  0  0  0  0  0  0  0  0  0  0
    0.7145   -0.4125    0.0000 C   0  0  0  0  0  0  0  0  0  0  0  0
    0.0000    0.0000    0.0000 C   0  0  0  0  0  0  0  0  0  0  0  0
    0.0000    0.8250    0.0000 C   0  0  0  0  0  0  0  0  0  0  0  0
  2  1  1  1  0  0  0
  2  3  2  0  0  0  0
  2  4  1  0  0  0  0
  4  5  2  0  0  0  0
  5  6  1  0  0  0  0
  6  7  2  0  0  0  0
  7  8  1  0  0  0  0
  8  9  2  0  0  0  0
  4  9  1  0  0  0  0
M  END
> <DRUGBANK_ID>
DB03848

> <DRUG_GROUPS>
experimental

> <GENERIC_NAME>
Benzenesulfonyl

> <CHEMICAL_FORMULA>
C6H6O2S

> <MOLECULAR_WEIGHT>
142.176

> <EXACT_MASS>
142.008850126

> <IUPAC_NAME>
(R)-benzenesulfinic acid

> <IUPAC_TRADITIONAL_NAME>
benzenesulfonyl

> <INCHI_IDENTIFIER>
InChI=1S/C6H6O2S/c7-9(8)6-4-2-1-3-5-6/h1-5H,(H,7,8)

> <INCHI_KEY>
InChIKey=JEHKKBHWRAXMCH-UHFFFAOYSA-N

> <SMILES>
O[S@@](=O)C1=CC=CC=C1

> <JCHEM_ACCEPTOR_COUNT>
2

> <JCHEM_DONOR_COUNT>
1

> <JCHEM_ACIDIC_PKA>
1.36

> <JCHEM_PHYSIOLOGICAL_CHARGE>
-1

> <ALOGPS_LOGP>
0.52

> <JCHEM_LOGP>
0.94

> <ALOGPS_LOGS>
-1.2

> <JCHEM_POLARIZABILITY>
13.46

> <JCHEM_POLAR_SURFACE_AREA>
37.3

> <JCHEM_REFRACTIVITY>
37.2

> <JCHEM_ROTATABLE_BOND_COUNT>
1

> <ALOGPS_SOLUBILITY>
9.55e+00 g/l __ 

$$$$
