
  Mrv0541 02231217102D          

  5  4  0  0  0  0            999 V2000
    2.0625   -0.7145    0.0000 N   0  0  0  0  0  0  0  0  0  0  0  0
    1.2375   -0.7145    0.0000 C   0  0  0  0  0  0  0  0  0  0  0  0
    0.8250   -1.4289    0.0000 N   0  0  0  0  0  0  0  0  0  0  0  0
    0.8250    0.0000    0.0000 N   0  0  0  0  0  0  0  0  0  0  0  0
    0.0000    0.0000    0.0000 O   0  0  0  0  0  0  0  0  0  0  0  0
  1  2  1  0  0  0  0
  2  3  2  0  0  0  0
  2  4  1  0  0  0  0
  4  5  1  0  0  0  0
M  END
> <DRUGBANK_ID>
DB03770

> <DRUG_GROUPS>
experimental

> <GENERIC_NAME>
N-Hydroxyguanidine

> <CHEMICAL_FORMULA>
CH5N3O

> <MOLECULAR_WEIGHT>
75.0699

> <EXACT_MASS>
75.043261797

> <IUPAC_NAME>
1-hydroxyguanidine

> <IUPAC_TRADITIONAL_NAME>
N-hydroxyguanidine

> <INCHI_IDENTIFIER>
InChI=1S/CH5N3O/c2-1(3)4-5/h5H,(H4,2,3,4)

> <INCHI_KEY>
InChIKey=WFBHRSAKANVBKH-UHFFFAOYSA-N

> <SMILES>
NC(=N)NO

> <JCHEM_ACCEPTOR_COUNT>
4

> <JCHEM_DONOR_COUNT>
4

> <JCHEM_ACIDIC_PKA>
14.82

> <JCHEM_BASIC_PKA>
10.51

> <JCHEM_PHYSIOLOGICAL_CHARGE>
1

> <ALOGPS_LOGP>
-1.8

> <JCHEM_LOGP>
-1.2

> <ALOGPS_LOGS>
-1

> <JCHEM_POLARIZABILITY>
6.45

> <JCHEM_POLAR_SURFACE_AREA>
82.13

> <JCHEM_REFRACTIVITY>
38.12

> <JCHEM_ROTATABLE_BOND_COUNT>
0

> <ALOGPS_SOLUBILITY>
6.83e+00 g/l __ 

$$$$
