
  Mrv0541 02231216412D          

  9  9  0  0  1  0            999 V2000
   -0.1467    3.1768    0.0000 C   0  0  0  0  0  0  0  0  0  0  0  0
   -0.1467    2.3518    0.0000 C   0  0  0  0  0  0  0  0  0  0  0  0
    0.5678    1.9393    0.0000 C   0  0  1  0  0  0  0  0  0  0  0  0
    1.2822    2.3518    0.0000 C   0  0  0  0  0  0  0  0  0  0  0  0
    0.5678    1.1143    0.0000 C   0  0  0  0  0  0  0  0  0  0  0  0
    1.2352    0.6294    0.0000 N   0  0  0  0  0  0  0  0  0  0  0  0
    0.9803   -0.1553    0.0000 C   0  0  0  0  0  0  0  0  0  0  0  0
    0.1553   -0.1553    0.0000 C   0  0  0  0  0  0  0  0  0  0  0  0
   -0.0997    0.6294    0.0000 S   0  0  0  0  0  0  0  0  0  0  0  0
  1  2  1  0  0  0  0
  2  3  1  0  0  0  0
  3  4  1  1  0  0  0
  3  5  1  0  0  0  0
  5  6  2  0  0  0  0
  6  7  1  0  0  0  0
  7  8  2  0  0  0  0
  8  9  1  0  0  0  0
  5  9  1  0  0  0  0
M  END
> <DRUGBANK_ID>
DB03087

> <DRUG_GROUPS>
experimental

> <GENERIC_NAME>
2-(Sec-Butyl)Thiazole

> <CHEMICAL_FORMULA>
C7H11NS

> <MOLECULAR_WEIGHT>
141.234

> <EXACT_MASS>
141.061220047

> <IUPAC_NAME>
2-[(2R)-butan-2-yl]-1,3-thiazole

> <IUPAC_TRADITIONAL_NAME>
2-(sec-butyl)thiazole

> <INCHI_IDENTIFIER>
InChI=1S/C7H11NS/c1-3-6(2)7-8-4-5-9-7/h4-6H,3H2,1-2H3/t6-/m1/s1

> <INCHI_KEY>
InChIKey=MHJSWOZJMPIGJQ-ZCFIWIBFSA-N

> <SMILES>
CC[C@@H](C)C1=NC=CS1

> <JCHEM_ACCEPTOR_COUNT>
1

> <JCHEM_DONOR_COUNT>
0

> <JCHEM_BASIC_PKA>
3.34

> <JCHEM_PHYSIOLOGICAL_CHARGE>
0

> <ALOGPS_LOGP>
3.06

> <JCHEM_LOGP>
2.44

> <ALOGPS_LOGS>
-2.3

> <JCHEM_POLARIZABILITY>
15.76

> <JCHEM_POLAR_SURFACE_AREA>
12.89

> <JCHEM_REFRACTIVITY>
39.51

> <JCHEM_ROTATABLE_BOND_COUNT>
2

> <ALOGPS_SOLUBILITY>
6.67e-01 g/l __ 

$$$$
