
  Mrv0541 02231216482D          

  8  7  0  0  1  0            999 V2000
    1.7605    1.8414    0.0000 C   0  0  0  0  0  0  0  0  0  0  0  0
    2.4750    1.4289    0.0000 C   0  0  0  0  0  0  0  0  0  0  0  0
    3.1895    1.8414    0.0000 C   0  0  0  0  0  0  0  0  0  0  0  0
    3.9039    1.4289    0.0000 C   0  0  0  0  0  0  0  0  0  0  0  0
    4.6184    1.8414    0.0000 C   0  0  1  0  0  0  0  0  0  0  0  0
    4.6184    2.6664    0.0000 N   0  0  0  0  0  0  0  0  0  0  0  0
    5.3329    1.4289    0.0000 C   0  0  0  0  0  0  0  0  0  0  0  0
    6.0474    1.8414    0.0000 O   0  0  0  0  0  0  0  0  0  0  0  0
  1  2  1  0  0  0  0
  2  3  1  0  0  0  0
  3  4  1  0  0  0  0
  4  5  1  0  0  0  0
  5  6  1  1  0  0  0
  5  7  1  0  0  0  0
  7  8  2  0  0  0  0
M  END
> <DRUGBANK_ID>
DB03241

> <DRUG_GROUPS>
experimental

> <GENERIC_NAME>
1-Amino-1-Carbonyl Pentane

> <CHEMICAL_FORMULA>
C6H13NO

> <MOLECULAR_WEIGHT>
115.1735

> <EXACT_MASS>
115.099714043

> <IUPAC_NAME>
(2R)-2-aminohexanal

> <IUPAC_TRADITIONAL_NAME>
(2R)-2-aminohexanal

> <INCHI_IDENTIFIER>
InChI=1S/C6H13NO/c1-2-3-4-6(7)5-8/h5-6H,2-4,7H2,1H3/t6-/m1/s1

> <INCHI_KEY>
InChIKey=TZJGKUCHNFFHGN-ZCFIWIBFSA-N

> <SMILES>
CCCC[C@@H](N)C=O

> <JCHEM_ACCEPTOR_COUNT>
2

> <JCHEM_DONOR_COUNT>
1

> <JCHEM_ACIDIC_PKA>
17.46

> <JCHEM_BASIC_PKA>
8.09

> <JCHEM_PHYSIOLOGICAL_CHARGE>
1

> <ALOGPS_LOGP>
0.9

> <JCHEM_LOGP>
0.67

> <ALOGPS_LOGS>
-0.42

> <JCHEM_POLARIZABILITY>
13.53

> <JCHEM_POLAR_SURFACE_AREA>
43.09

> <JCHEM_REFRACTIVITY>
33.3

> <JCHEM_ROTATABLE_BOND_COUNT>
4

> <ALOGPS_SOLUBILITY>
4.36e+01 g/l __ 

$$$$
