
  Mrv0541 02231217012D          

 24 25  0  0  1  0            999 V2000
   -4.2838    2.4072    0.0000 C   0  0  0  0  0  0  0  0  0  0  0  0
   -3.8344    1.7153    0.0000 C   0  0  0  0  0  0  0  0  0  0  0  0
   -4.5695    1.3408    0.0000 C   0  0  0  0  0  0  0  0  0  0  0  0
   -3.1933    2.2345    0.0000 S   0  0  0  0  0  0  0  0  0  0  0  0
   -2.5014    1.7852    0.0000 C   0  0  1  0  0  0  0  0  0  0  0  0
   -1.7045    1.5717    0.0000 C   0  0  2  0  0  0  0  0  0  0  0  0
   -0.9900    1.9842    0.0000 N   0  0  0  0  0  0  0  0  0  0  0  0
   -0.2755    1.5717    0.0000 C   0  0  0  0  0  0  0  0  0  0  0  0
   -0.2755    0.7467    0.0000 O   0  0  0  0  0  0  0  0  0  0  0  0
    0.4389    1.9842    0.0000 C   0  0  0  0  0  0  0  0  0  0  0  0
    1.1534    1.5717    0.0000 C   0  0  0  0  0  0  0  0  0  0  0  0
    1.8679    1.9842    0.0000 C   0  0  0  0  0  0  0  0  0  0  0  0
    2.5823    1.5717    0.0000 C   0  0  2  0  0  0  0  0  0  0  0  0
    2.5823    0.7467    0.0000 N   0  0  0  0  0  0  0  0  0  0  0  0
    3.2968    1.9842    0.0000 C   0  0  0  0  0  0  0  0  0  0  0  0
    4.0113    1.5717    0.0000 O   0  0  0  0  0  0  0  0  0  0  0  0
    3.2968    2.8092    0.0000 O   0  0  0  0  0  0  0  0  0  0  0  0
   -1.9180    0.7748    0.0000 C   0  0  0  0  0  0  0  0  0  0  0  0
   -1.5055    0.0603    0.0000 O   0  0  0  0  0  0  0  0  0  0  0  0
   -2.7149    0.9883    0.0000 N   0  0  0  0  0  0  0  0  0  0  0  0
   -3.5388    0.9451    0.0000 C   0  0  2  0  0  0  0  0  0  0  0  0
   -3.9881    0.2532    0.0000 C   0  0  0  0  0  0  0  0  0  0  0  0
   -3.6136   -0.4819    0.0000 O   0  0  0  0  0  0  0  0  0  0  0  0
   -4.8120    0.2964    0.0000 O   0  0  0  0  0  0  0  0  0  0  0  0
  1  2  1  0  0  0  0
  2  3  1  0  0  0  0
  2  4  1  0  0  0  0
  4  5  1  0  0  0  0
  5  6  1  0  0  0  0
  6  7  1  6  0  0  0
  7  8  1  0  0  0  0
  8  9  2  0  0  0  0
  8 10  1  0  0  0  0
 10 11  1  0  0  0  0
 11 12  1  0  0  0  0
 12 13  1  0  0  0  0
 13 14  1  1  0  0  0
 13 15  1  0  0  0  0
 15 16  1  0  0  0  0
 15 17  2  0  0  0  0
  6 18  1  0  0  0  0
 18 19  2  0  0  0  0
 18 20  1  0  0  0  0
  5 20  1  1  0  0  0
 20 21  1  0  0  0  0
  2 21  1  0  0  0  0
 21 22  1  6  0  0  0
 22 23  1  0  0  0  0
 22 24  2  0  0  0  0
M  END
> <DRUGBANK_ID>
DB03550

> <DRUG_GROUPS>
experimental

> <GENERIC_NAME>
Isopenicillin N

> <CHEMICAL_FORMULA>
C14H21N3O6S

> <MOLECULAR_WEIGHT>
359.398

> <EXACT_MASS>
359.115106109

> <IUPAC_NAME>
(2R,5S,6R)-6-[(5S)-5-amino-5-carboxypentanamido]-3,3-dimethyl-7-oxo-4-thia-1-azabicyclo[3.2.0]heptane-2-carboxylic acid

> <IUPAC_TRADITIONAL_NAME>
isopenicillin N

> <INCHI_IDENTIFIER>
InChI=1S/C14H21N3O6S/c1-14(2)9(13(22)23)17-10(19)8(11(17)24-14)16-7(18)5-3-4-6(15)12(20)21/h6,8-9,11H,3-5,15H2,1-2H3,(H,16,18)(H,20,21)(H,22,23)/t6-,8+,9+,11-/m0/s1

> <INCHI_KEY>
InChIKey=MIFYHUACUWQUKT-QSKNDCFUSA-N

> <SMILES>
CC1(C)S[C@H]2[C@H](NC(=O)CCC[C@H](N)C(O)=O)C(=O)N2[C@@H]1C(O)=O

> <JCHEM_ACCEPTOR_COUNT>
7

> <JCHEM_DONOR_COUNT>
4

> <JCHEM_ACIDIC_PKA>
1.83

> <JCHEM_BASIC_PKA>
9.23

> <JCHEM_PHYSIOLOGICAL_CHARGE>
-1

> <ALOGPS_LOGP>
-1.4

> <JCHEM_LOGP>
-3.4

> <ALOGPS_LOGS>
-1.6

> <JCHEM_POLARIZABILITY>
35.56

> <JCHEM_POLAR_SURFACE_AREA>
150.03

> <JCHEM_REFRACTIVITY>
83.05

> <JCHEM_ROTATABLE_BOND_COUNT>
7

> <ALOGPS_SOLUBILITY>
8.96e+00 g/l __ 

$$$$
