
  Mrv0541 02231217202D          

 20 22  0  0  1  0            999 V2000
    4.0668    2.3479    0.0000 C   0  0  0  0  0  0  0  0  0  0  0  0
    3.3523    1.9354    0.0000 N   0  0  0  0  0  0  0  0  0  0  0  0
    3.3523    1.1104    0.0000 C   0  0  0  0  0  0  0  0  0  0  0  0
    2.6378    0.6979    0.0000 N   0  0  0  0  0  0  0  0  0  0  0  0
    1.9233    1.1104    0.0000 C   0  0  0  0  0  0  0  0  0  0  0  0
    1.1387    0.8555    0.0000 C   0  0  0  0  0  0  0  0  0  0  0  0
    0.6538    1.5229    0.0000 N   0  0  0  0  0  0  0  0  0  0  0  0
    1.1387    2.1904    0.0000 N   0  0  0  0  0  0  0  0  0  0  0  0
    1.9233    1.9354    0.0000 C   0  0  0  0  0  0  0  0  0  0  0  0
    2.6378    2.3479    0.0000 C   0  0  0  0  0  0  0  0  0  0  0  0
    2.6378    3.1729    0.0000 N   0  0  0  0  0  0  0  0  0  0  0  0
    0.8838    0.0709    0.0000 C   0  0  2  0  0  0  0  0  0  0  0  0
    1.3687   -0.5966    0.0000 O   0  0  0  0  0  0  0  0  0  0  0  0
    0.8838   -1.2640    0.0000 C   0  0  1  0  0  0  0  0  0  0  0  0
    1.1387   -2.0486    0.0000 C   0  0  0  0  0  0  0  0  0  0  0  0
    1.9457   -2.2201    0.0000 O   0  0  0  0  0  0  0  0  0  0  0  0
    0.0992   -1.0091    0.0000 C   0  0  2  0  0  0  0  0  0  0  0  0
   -0.5683   -1.4940    0.0000 O   0  0  0  0  0  0  0  0  0  0  0  0
    0.0992   -0.1841    0.0000 C   0  0  1  0  0  0  0  0  0  0  0  0
   -0.5683    0.3009    0.0000 O   0  0  0  0  0  0  0  0  0  0  0  0
  1  2  1  0  0  0  0
  2  3  1  0  0  0  0
  3  4  2  0  0  0  0
  4  5  1  0  0  0  0
  5  6  2  0  0  0  0
  6  7  1  0  0  0  0
  7  8  2  0  0  0  0
  8  9  1  0  0  0  0
  5  9  1  0  0  0  0
  9 10  2  0  0  0  0
  2 10  1  0  0  0  0
 10 11  1  0  0  0  0
 12  6  1  6  0  0  0
 12 13  1  0  0  0  0
 13 14  1  0  0  0  0
 14 15  1  1  0  0  0
 15 16  1  0  0  0  0
 14 17  1  0  0  0  0
 17 18  1  6  0  0  0
 17 19  1  0  0  0  0
 12 19  1  0  0  0  0
 19 20  1  1  0  0  0
M  END
> <DRUGBANK_ID>
DB03986

> <DRUG_GROUPS>
experimental

> <GENERIC_NAME>
6-Methyl-Formycin A

> <CHEMICAL_FORMULA>
C11H15N5O4

> <MOLECULAR_WEIGHT>
281.2679

> <EXACT_MASS>
281.112403993

> <IUPAC_NAME>
(2S,3R,4R,5S)-2-{7-amino-6-methyl-6H-pyrazolo[4,3-d]pyrimidin-3-yl}-5-(hydroxymethyl)oxolane-3,4-diol

> <IUPAC_TRADITIONAL_NAME>
6-methyl-formycin A

> <INCHI_IDENTIFIER>
InChI=1S/C11H15N5O4/c1-16-3-13-5-6(14-15-7(5)11(16)12)10-9(19)8(18)4(2-17)20-10/h3-4,8-10,17-19H,2,12H2,1H3/t4-,8-,9+,10-/m0/s1

> <INCHI_KEY>
InChIKey=MZVZLZFBHQNYSK-CPXCQARFSA-N

> <SMILES>
CN1C=NC2=C(N=NC2=C1N)[C@@H]1O[C@@H](CO)[C@H](O)[C@H]1O

> <JCHEM_ACCEPTOR_COUNT>
8

> <JCHEM_DONOR_COUNT>
4

> <JCHEM_ACIDIC_PKA>
12.57

> <JCHEM_BASIC_PKA>
1.31

> <JCHEM_PHYSIOLOGICAL_CHARGE>
0

> <ALOGPS_LOGP>
-1.1

> <JCHEM_LOGP>
-3

> <ALOGPS_LOGS>
-2.1

> <JCHEM_POLARIZABILITY>
27.34

> <JCHEM_POLAR_SURFACE_AREA>
139.54

> <JCHEM_REFRACTIVITY>
67.98

> <JCHEM_ROTATABLE_BOND_COUNT>
2

> <ALOGPS_SOLUBILITY>
2.28e+00 g/l __ 

$$$$
