
  Mrv0541 02231216502D          

 29 28  0  0  1  0            999 V2000
    9.7086    6.4302    0.0000 N   0  0  0  0  0  0  0  0  0  0  0  0
   10.4230    6.8427    0.0000 C   0  0  0  0  0  0  0  0  0  0  0  0
   11.1375    6.4302    0.0000 C   0  0  0  0  0  0  0  0  0  0  0  0
   11.8520    6.8427    0.0000 C   0  0  0  0  0  0  0  0  0  0  0  0
   12.5664    6.4302    0.0000 C   0  0  0  0  0  0  0  0  0  0  0  0
   13.2809    6.8427    0.0000 N   0  0  0  0  0  0  0  0  0  0  0  0
   13.9954    6.4302    0.0000 C   0  0  0  0  0  0  0  0  0  0  0  0
   14.7099    6.8427    0.0000 C   0  0  0  0  0  0  0  0  0  0  0  0
   15.4243    6.4302    0.0000 C   0  0  0  0  0  0  0  0  0  0  0  0
   16.1388    6.8427    0.0000 N   0  0  0  0  0  0  0  0  0  0  0  0
   16.8533    6.4302    0.0000 C   0  0  0  0  0  0  0  0  0  0  0  0
   16.8533    5.6052    0.0000 O   0  0  0  0  0  0  0  0  0  0  0  0
   17.5677    6.8427    0.0000 C   0  0  0  0  0  0  0  0  0  0  0  0
   18.2822    6.4302    0.0000 N   0  0  0  0  0  0  0  0  0  0  0  0
   18.9967    6.8427    0.0000 C   0  0  0  0  0  0  0  0  0  0  0  0
   18.9967    7.6677    0.0000 O   0  0  0  0  0  0  0  0  0  0  0  0
   19.7112    6.4302    0.0000 C   0  0  1  0  0  0  0  0  0  0  0  0
   19.7112    5.6052    0.0000 C   0  0  0  0  0  0  0  0  0  0  0  0
   20.4256    5.1927    0.0000 S   0  0  0  0  0  0  0  0  0  0  0  0
   20.4256    6.8427    0.0000 N   0  0  0  0  0  0  0  0  0  0  0  0
   21.1401    6.4302    0.0000 C   0  0  0  0  0  0  0  0  0  0  0  0
   21.1401    5.6052    0.0000 O   0  0  0  0  0  0  0  0  0  0  0  0
   21.8546    6.8427    0.0000 C   0  0  0  0  0  0  0  0  0  0  0  0
   22.5690    6.4302    0.0000 C   0  0  0  0  0  0  0  0  0  0  0  0
   23.2835    6.8427    0.0000 C   0  0  2  0  0  0  0  0  0  0  0  0
   23.2835    7.6677    0.0000 N   0  0  0  0  0  0  0  0  0  0  0  0
   23.9980    6.4302    0.0000 C   0  0  0  0  0  0  0  0  0  0  0  0
   24.7124    6.8427    0.0000 O   0  0  0  0  0  0  0  0  0  0  0  0
   23.9980    5.6052    0.0000 O   0  0  0  0  0  0  0  0  0  0  0  0
  1  2  1  0  0  0  0
  2  3  1  0  0  0  0
  3  4  1  0  0  0  0
  4  5  1  0  0  0  0
  5  6  1  0  0  0  0
  6  7  1  0  0  0  0
  7  8  1  0  0  0  0
  8  9  1  0  0  0  0
  9 10  1  0  0  0  0
 10 11  1  0  0  0  0
 11 12  2  0  0  0  0
 11 13  1  0  0  0  0
 13 14  1  0  0  0  0
 14 15  1  0  0  0  0
 15 16  2  0  0  0  0
 15 17  1  0  0  0  0
 17 18  1  0  0  0  0
 18 19  1  0  0  0  0
 17 20  1  6  0  0  0
 20 21  1  0  0  0  0
 21 22  2  0  0  0  0
 21 23  1  0  0  0  0
 23 24  1  0  0  0  0
 24 25  1  0  0  0  0
 25 26  1  6  0  0  0
 25 27  1  0  0  0  0
 27 28  1  0  0  0  0
 27 29  2  0  0  0  0
M  END
> <DRUGBANK_ID>
DB03295

> <DRUG_GROUPS>
experimental

> <GENERIC_NAME>
Glutathionylspermidine

> <CHEMICAL_FORMULA>
C17H34N6O5S

> <MOLECULAR_WEIGHT>
434.554

> <EXACT_MASS>
434.231138918

> <IUPAC_NAME>
(2S)-2-amino-4-{[(1S)-1-{[({3-[(4-aminobutyl)amino]propyl}carbamoyl)methyl]carbamoyl}-2-sulfanylethyl]carbamoyl}butanoic acid

> <IUPAC_TRADITIONAL_NAME>
glutathionylspermidine

> <INCHI_IDENTIFIER>
InChI=1S/C17H34N6O5S/c18-6-1-2-7-20-8-3-9-21-15(25)10-22-16(26)13(11-29)23-14(24)5-4-12(19)17(27)28/h12-13,20,29H,1-11,18-19H2,(H,21,25)(H,22,26)(H,23,24)(H,27,28)/t12-,13+/m0/s1

> <INCHI_KEY>
InChIKey=NEDQLXHBVHSKNV-QWHCGFSZSA-N

> <SMILES>
NCCCCNCCCNC(=O)CNC(=O)[C@@H](CS)NC(=O)CC[C@H](N)C(O)=O

> <JCHEM_ACCEPTOR_COUNT>
8

> <JCHEM_DONOR_COUNT>
8

> <JCHEM_ACIDIC_PKA>
1.94

> <JCHEM_BASIC_PKA>
10.75

> <JCHEM_PHYSIOLOGICAL_CHARGE>
2

> <ALOGPS_LOGP>
-2.3

> <JCHEM_LOGP>
-6.7

> <ALOGPS_LOGS>
-3.9

> <JCHEM_POLARIZABILITY>
47.51

> <JCHEM_POLAR_SURFACE_AREA>
188.67

> <JCHEM_REFRACTIVITY>
110.88

> <JCHEM_ROTATABLE_BOND_COUNT>
17

> <ALOGPS_SOLUBILITY>
5.66e-02 g/l __ 

$$$$
