
  Mrv0541 02231217022D          

  6  5  0  0  0  0            999 V2000
    0.8250    1.4289    0.0000 C   0  0  0  0  0  0  0  0  0  0  0  0
    1.2375    0.7145    0.0000 C   0  0  0  0  0  0  0  0  0  0  0  0
    2.0625    0.7145    0.0000 O   0  0  0  0  0  0  0  0  0  0  0  0
    0.8250    0.0000    0.0000 C   0  0  0  0  0  0  0  0  0  0  0  0
    1.2375   -0.7145    0.0000 N   0  0  0  0  0  0  0  0  0  0  0  0
    0.0000    0.0000    0.0000 O   0  0  0  0  0  0  0  0  0  0  0  0
  1  2  1  0  0  0  0
  2  3  2  0  0  0  0
  2  4  1  0  0  0  0
  4  5  1  0  0  0  0
  4  6  2  0  0  0  0
M  END
> <DRUGBANK_ID>
DB03578

> <DRUG_GROUPS>
experimental

> <GENERIC_NAME>
Pyruvamide

> <CHEMICAL_FORMULA>
C3H5NO2

> <MOLECULAR_WEIGHT>
87.0773

> <EXACT_MASS>
87.032028409

> <IUPAC_NAME>
2-oxopropanamide

> <IUPAC_TRADITIONAL_NAME>
pyruvamide

> <INCHI_IDENTIFIER>
InChI=1S/C3H5NO2/c1-2(5)3(4)6/h1H3,(H2,4,6)

> <INCHI_KEY>
InChIKey=FPOLWERNILTNDK-UHFFFAOYSA-N

> <SMILES>
CC(=O)C(N)=O

> <JCHEM_ACCEPTOR_COUNT>
2

> <JCHEM_DONOR_COUNT>
1

> <JCHEM_ACIDIC_PKA>
13.78

> <JCHEM_BASIC_PKA>
-4

> <JCHEM_PHYSIOLOGICAL_CHARGE>
0

> <ALOGPS_LOGP>
-1.1

> <JCHEM_LOGP>
-0.74

> <ALOGPS_LOGS>
0.28

> <JCHEM_POLARIZABILITY>
7.74

> <JCHEM_POLAR_SURFACE_AREA>
60.16

> <JCHEM_REFRACTIVITY>
19.81

> <JCHEM_ROTATABLE_BOND_COUNT>
1

> <ALOGPS_SOLUBILITY>
1.65e+02 g/l __ 

$$$$
