I3N
  Mrv0541 02231216422D          

 23 25  0  0  0  0            999 V2000
    2.8699   -0.8413    0.0000 C   0  0  0  0  0  0  0  0  0  0  0  0
    2.1555   -1.2538    0.0000 O   0  0  0  0  0  0  0  0  0  0  0  0
    1.4410   -0.8413    0.0000 C   0  0  0  0  0  0  0  0  0  0  0  0
    0.7265   -1.2538    0.0000 C   0  0  0  0  0  0  0  0  0  0  0  0
    0.0120   -0.8413    0.0000 C   0  0  0  0  0  0  0  0  0  0  0  0
    0.0120   -0.0163    0.0000 C   0  0  0  0  0  0  0  0  0  0  0  0
    0.7265    0.3962    0.0000 C   0  0  0  0  0  0  0  0  0  0  0  0
    1.4410   -0.0163    0.0000 C   0  0  0  0  0  0  0  0  0  0  0  0
   -0.7726    0.2386    0.0000 N   0  0  0  0  0  0  0  0  0  0  0  0
   -1.2575   -0.4288    0.0000 C   0  0  0  0  0  0  0  0  0  0  0  0
   -0.7726   -1.0963    0.0000 C   0  0  0  0  0  0  0  0  0  0  0  0
   -1.0275   -1.8809    0.0000 C   0  0  0  0  0  0  0  0  0  0  0  0
   -0.4755   -2.4940    0.0000 C   0  0  0  0  0  0  0  0  0  0  0  0
    0.3315   -2.3225    0.0000 O   0  0  0  0  0  0  0  0  0  0  0  0
   -0.7304   -3.2786    0.0000 O   0  0  0  0  0  0  0  0  0  0  0  0
   -2.0825   -0.4288    0.0000 C   0  0  0  0  0  0  0  0  0  0  0  0
   -1.0275    1.0232    0.0000 C   0  0  0  0  0  0  0  0  0  0  0  0
   -0.4755    1.6363    0.0000 C   0  0  0  0  0  0  0  0  0  0  0  0
   -0.7304    2.4210    0.0000 C   0  0  0  0  0  0  0  0  0  0  0  0
   -0.1784    3.0340    0.0000 C   0  0  0  0  0  0  0  0  0  0  0  0
    0.6286    2.8625    0.0000 C   0  0  0  0  0  0  0  0  0  0  0  0
    0.8835    2.0779    0.0000 C   0  0  0  0  0  0  0  0  0  0  0  0
    0.3315    1.4648    0.0000 C   0  0  0  0  0  0  0  0  0  0  0  0
  1  2  1  0  0  0  0
  2  3  1  0  0  0  0
  3  4  2  0  0  0  0
  3  8  1  0  0  0  0
  4  5  1  0  0  0  0
  5  6  2  0  0  0  0
  5 11  1  0  0  0  0
  6  7  1  0  0  0  0
  6  9  1  0  0  0  0
  7  8  2  0  0  0  0
  9 10  1  0  0  0  0
  9 17  1  0  0  0  0
 10 11  2  0  0  0  0
 10 16  1  0  0  0  0
 11 12  1  0  0  0  0
 12 13  1  0  0  0  0
 13 14  1  0  0  0  0
 13 15  2  0  0  0  0
 17 18  1  0  0  0  0
 18 19  2  0  0  0  0
 18 23  1  0  0  0  0
 19 20  1  0  0  0  0
 20 21  2  0  0  0  0
 21 22  1  0  0  0  0
 22 23  2  0  0  0  0
M  END
> <DRUGBANK_ID>
DB03121

> <DRUG_GROUPS>
experimental

> <GENERIC_NAME>
1-Benzyl-5-Methoxy-2-Methyl-1h-Indol-3-Yl)-Acetic Acid

> <CHEMICAL_FORMULA>
C19H19NO3

> <MOLECULAR_WEIGHT>
309.3591

> <EXACT_MASS>
309.136493479

> <IUPAC_NAME>
2-(1-benzyl-5-methoxy-2-methyl-1H-indol-3-yl)acetic acid

> <IUPAC_TRADITIONAL_NAME>
(1-benzyl-5-methoxy-2-methylindol-3-yl)acetic acid

> <INCHI_IDENTIFIER>
InChI=1S/C19H19NO3/c1-13-16(11-19(21)22)17-10-15(23-2)8-9-18(17)20(13)12-14-6-4-3-5-7-14/h3-10H,11-12H2,1-2H3,(H,21,22)

> <INCHI_KEY>
InChIKey=ZEKCBTQHDTUHRJ-UHFFFAOYSA-N

> <SMILES>
COC1=CC2=C(C=C1)N(CC1=CC=CC=C1)C(C)=C2CC(O)=O

> <JCHEM_ACCEPTOR_COUNT>
3

> <JCHEM_DONOR_COUNT>
1

> <JCHEM_ACIDIC_PKA>
4.45

> <JCHEM_BASIC_PKA>
-4.8

> <JCHEM_PHYSIOLOGICAL_CHARGE>
-1

> <ALOGPS_LOGP>
3.82

> <JCHEM_LOGP>
3.7

> <ALOGPS_LOGS>
-4.5

> <JCHEM_POLARIZABILITY>
33.54

> <JCHEM_POLAR_SURFACE_AREA>
51.46

> <JCHEM_REFRACTIVITY>
89.57

> <JCHEM_ROTATABLE_BOND_COUNT>
5

> <ALOGPS_SOLUBILITY>
1.01e-02 g/l __ 

$$$$
