
  Mrv0541 02231217142D          

  9  9  0  0  1  0            999 V2000
    2.1434    1.2375    0.0000 C   0  0  0  0  0  0  0  0  0  0  0  0
    1.4289    0.8250    0.0000 C   0  0  2  0  0  0  0  0  0  0  0  0
    1.4289    0.0000    0.0000 O   0  0  0  0  0  0  0  0  0  0  0  0
    0.7145   -0.4125    0.0000 C   0  0  2  0  0  0  0  0  0  0  0  0
    0.7145   -1.2375    0.0000 O   0  0  0  0  0  0  0  0  0  0  0  0
    0.0000    0.0000    0.0000 C   0  0  0  0  0  0  0  0  0  0  0  0
    0.0000    0.8250    0.0000 C   0  0  0  0  0  0  0  0  0  0  0  0
    0.7145    1.2375    0.0000 C   0  0  1  0  0  0  0  0  0  0  0  0
    0.7145    2.0625    0.0000 O   0  0  0  0  0  0  0  0  0  0  0  0
  2  1  1  6  0  0  0
  2  3  1  0  0  0  0
  3  4  1  0  0  0  0
  4  5  1  6  0  0  0
  4  6  1  0  0  0  0
  6  7  1  0  0  0  0
  7  8  1  0  0  0  0
  2  8  1  0  0  0  0
  8  9  1  1  0  0  0
M  END
> <DRUGBANK_ID>
DB03872

> <DRUG_GROUPS>
experimental

> <GENERIC_NAME>
2,3-Dideoxyfucose

> <CHEMICAL_FORMULA>
C6H12O3

> <MOLECULAR_WEIGHT>
132.1577

> <EXACT_MASS>
132.07864425

> <IUPAC_NAME>
(2S,5R,6S)-6-methyloxane-2,5-diol

> <IUPAC_TRADITIONAL_NAME>
2,3-dideoxyfucose

> <INCHI_IDENTIFIER>
InChI=1S/C6H12O3/c1-4-5(7)2-3-6(8)9-4/h4-8H,2-3H2,1H3/t4-,5+,6-/m0/s1

> <INCHI_KEY>
InChIKey=ZCYMCBOUZXAAJG-JKUQZMGJSA-N

> <SMILES>
C[C@@H]1O[C@H](O)CC[C@H]1O

> <JCHEM_ACCEPTOR_COUNT>
3

> <JCHEM_DONOR_COUNT>
2

> <JCHEM_ACIDIC_PKA>
12.45

> <JCHEM_BASIC_PKA>
-3.2

> <JCHEM_PHYSIOLOGICAL_CHARGE>
0

> <ALOGPS_LOGP>
-0.58

> <JCHEM_LOGP>
-0.28

> <ALOGPS_LOGS>
0.73

> <JCHEM_POLARIZABILITY>
13.71

> <JCHEM_POLAR_SURFACE_AREA>
49.69

> <JCHEM_REFRACTIVITY>
32.08

> <JCHEM_ROTATABLE_BOND_COUNT>
0

> <ALOGPS_SOLUBILITY>
7.07e+02 g/l __ 

$$$$
