IH5
  Mrv0541 02231216452D          

 23 24  0  0  0  0            999 V2000
    0.2047    3.6537    0.0000 O    0  0  0  0  0  0  0  0  0  0  0  0
    0.2047    2.8287    0.0000 C    0  0  0  0  0  0  0  0  0  0  0  0
   -0.5098    2.4162    0.0000 O    0  0  0  0  0  0  0  0  0  0  0  0
    0.9192    2.4162    0.0000 C    0  0  0  0  0  0  0  0  0  0  0  0
    0.9192    1.5912    0.0000 C    0  0  0  0  0  0  0  0  0  0  0  0
    1.6336    1.1787    0.0000 C    0  0  0  0  0  0  0  0  0  0  0  0
    1.6336    0.3537    0.0000 C    0  0  0  0  0  0  0  0  0  0  0  0
    0.9192   -0.0588    0.0000 C    0  0  0  0  0  0  0  0  0  0  0  0
    0.9192   -0.8838    0.0000 O    0  0  0  0  0  0  0  0  0  0  0  0
    0.2047   -1.2963    0.0000 C    0  0  0  0  0  0  0  0  0  0  0  0
    0.2047   -2.1213    0.0000 C    0  0  0  0  0  0  0  0  0  0  0  0
   -0.5098   -2.5338    0.0000 C    0  0  0  0  0  0  0  0  0  0  0  0
   -1.2242   -2.1213    0.0000 C    0  0  0  0  0  0  0  0  0  0  0  0
   -1.9387   -2.5338    0.0000 O    0  0  0  0  0  0  0  0  0  0  0  0
   -1.2242   -1.2963    0.0000 C    0  0  0  0  0  0  0  0  0  0  0  0
   -0.5098   -0.8838    0.0000 C    0  0  0  0  0  0  0  0  0  0  0  0
   -1.9387   -0.8838    0.0000 C    0  0  0  0  0  0  0  0  0  0  0  0
   -1.9387   -0.0588    0.0000 C    0  0  0  0  0  0  0  0  0  0  0  0
   -2.6532   -1.2963    0.0000 C    0  0  0  0  0  0  0  0  0  0  0  0
    0.2047    0.3537    0.0000 C    0  0  0  0  0  0  0  0  0  0  0  0
    0.2047    1.1787    0.0000 C    0  0  0  0  0  0  0  0  0  0  0  0
   -0.5098   -0.0588    0.0000 Cl   0  0  0  0  0  0  0  0  0  0  0  0
    2.3481   -0.0588    0.0000 Cl   0  0  0  0  0  0  0  0  0  0  0  0
  1  2  1  0  0  0  0
  2  3  2  0  0  0  0
  2  4  1  0  0  0  0
  4  5  1  0  0  0  0
  5  6  2  0  0  0  0
  5 21  1  0  0  0  0
  6  7  1  0  0  0  0
  7  8  2  0  0  0  0
  7 23  1  0  0  0  0
  8  9  1  0  0  0  0
  8 20  1  0  0  0  0
  9 10  1  0  0  0  0
 10 11  2  0  0  0  0
 10 16  1  0  0  0  0
 11 12  1  0  0  0  0
 12 13  2  0  0  0  0
 13 14  1  0  0  0  0
 13 15  1  0  0  0  0
 15 16  2  0  0  0  0
 15 17  1  0  0  0  0
 17 18  1  0  0  0  0
 17 19  1  0  0  0  0
 20 21  2  0  0  0  0
 20 22  1  0  0  0  0
M  END
> <DRUGBANK_ID>
DB03176

> <DRUG_GROUPS>
experimental

> <GENERIC_NAME>
3,5-Dichloro-4-[(4-Hydroxy-3-Isopropylphenoxy)Phenylacetic Acid

> <CHEMICAL_FORMULA>
C17H16Cl2O4

> <MOLECULAR_WEIGHT>
355.213

> <EXACT_MASS>
354.042564414

> <IUPAC_NAME>
2-{3,5-dichloro-4-[4-hydroxy-3-(propan-2-yl)phenoxy]phenyl}acetic acid

> <IUPAC_TRADITIONAL_NAME>
[3,5-dichloro-4-(4-hydroxy-3-isopropylphenoxy)phenyl]acetic acid

> <INCHI_IDENTIFIER>
InChI=1S/C17H16Cl2O4/c1-9(2)12-8-11(3-4-15(12)20)23-17-13(18)5-10(6-14(17)19)7-16(21)22/h3-6,8-9,20H,7H2,1-2H3,(H,21,22)

> <INCHI_KEY>
InChIKey=OZYQIQVPUZANTM-UHFFFAOYSA-N

> <SMILES>
CC(C)C1=CC(OC2=C(Cl)C=C(CC(O)=O)C=C2Cl)=CC=C1O

> <JCHEM_ACCEPTOR_COUNT>
3

> <JCHEM_DONOR_COUNT>
2

> <JCHEM_ACIDIC_PKA>
3.27

> <JCHEM_BASIC_PKA>
-5.7

> <JCHEM_PHYSIOLOGICAL_CHARGE>
-1

> <ALOGPS_LOGP>
4.88

> <JCHEM_LOGP>
5.26

> <ALOGPS_LOGS>
-5

> <JCHEM_POLARIZABILITY>
34.26

> <JCHEM_POLAR_SURFACE_AREA>
66.76

> <JCHEM_REFRACTIVITY>
89.39

> <JCHEM_ROTATABLE_BOND_COUNT>
5

> <ALOGPS_SOLUBILITY>
3.19e-03 g/l __ 

$$$$
