
  Mrv0541 02231216472D          

 12 12  0  0  1  0            999 V2000
    1.6145   -2.2438    0.0000 O   0  0  0  0  0  0  0  0  0  0  0  0
    1.1296   -1.5764    0.0000 C   0  0  0  0  0  0  0  0  0  0  0  0
    0.3091   -1.6626    0.0000 O   0  0  0  0  0  0  0  0  0  0  0  0
    1.4652   -0.8227    0.0000 C   0  0  0  0  0  0  0  0  0  0  0  0
    0.9803   -0.1553    0.0000 C   0  0  1  0  0  0  0  0  0  0  0  0
    0.1553   -0.1553    0.0000 C   0  0  0  0  0  0  0  0  0  0  0  0
   -0.0997    0.6294    0.0000 C   0  0  0  0  0  0  0  0  0  0  0  0
    0.5678    1.1143    0.0000 C   0  0  2  0  0  0  0  0  0  0  0  0
    1.2352    0.6294    0.0000 N   0  0  0  0  0  0  0  0  0  0  0  0
    0.5678    1.9393    0.0000 C   0  0  0  0  0  0  0  0  0  0  0  0
   -0.1467    2.3518    0.0000 O   0  0  0  0  0  0  0  0  0  0  0  0
    1.2822    2.3518    0.0000 O   0  0  0  0  0  0  0  0  0  0  0  0
  1  2  1  0  0  0  0
  2  3  2  0  0  0  0
  2  4  1  0  0  0  0
  5  4  1  1  0  0  0
  5  6  1  0  0  0  0
  6  7  1  0  0  0  0
  7  8  1  0  0  0  0
  8  9  1  0  0  0  0
  5  9  1  0  0  0  0
  8 10  1  1  0  0  0
 10 11  1  0  0  0  0
 10 12  2  0  0  0  0
M  END
> <DRUGBANK_ID>
DB03215

> <DRUG_GROUPS>
experimental

> <GENERIC_NAME>
(2s,5s)-5-Carboxymethylproline

> <CHEMICAL_FORMULA>
C7H11NO4

> <MOLECULAR_WEIGHT>
173.1665

> <EXACT_MASS>
173.068807845

> <IUPAC_NAME>
(2S,5R)-5-(carboxymethyl)pyrrolidine-2-carboxylic acid

> <IUPAC_TRADITIONAL_NAME>
(2S,5R)-5-(carboxymethyl)pyrrolidine-2-carboxylic acid

> <INCHI_IDENTIFIER>
InChI=1S/C7H11NO4/c9-6(10)3-4-1-2-5(8-4)7(11)12/h4-5,8H,1-3H2,(H,9,10)(H,11,12)/t4-,5+/m1/s1

> <INCHI_KEY>
InChIKey=LIZWYFXJOOUDNV-UHNVWZDZSA-N

> <SMILES>
OC(=O)C[C@H]1CC[C@H](N1)C(O)=O

> <JCHEM_ACCEPTOR_COUNT>
5

> <JCHEM_DONOR_COUNT>
3

> <JCHEM_ACIDIC_PKA>
1.51

> <JCHEM_BASIC_PKA>
11.33

> <JCHEM_PHYSIOLOGICAL_CHARGE>
-1

> <ALOGPS_LOGP>
-2.6

> <JCHEM_LOGP>
-2.9

> <ALOGPS_LOGS>
-0.6

> <JCHEM_POLARIZABILITY>
16.17

> <JCHEM_POLAR_SURFACE_AREA>
86.63

> <JCHEM_REFRACTIVITY>
38.52

> <JCHEM_ROTATABLE_BOND_COUNT>
3

> <ALOGPS_SOLUBILITY>
4.39e+01 g/l __ 

$$$$
