
  Mrv0541 02231216462D          

 43 47  0  0  1  0            999 V2000
    1.0488   -3.8060    0.0000 C   0  0  0  0  0  0  0  0  0  0  0  0
    1.3309   -3.0308    0.0000 C   0  0  0  0  0  0  0  0  0  0  0  0
    2.1434   -2.8875    0.0000 C   0  0  1  0  0  0  0  0  0  0  0  0
    1.8612   -2.1123    0.0000 O   0  0  0  0  0  0  0  0  0  0  0  0
    2.1434   -3.7125    0.0000 C   0  0  0  0  0  0  0  0  0  0  0  0
    2.8579   -4.1250    0.0000 C   0  0  2  0  0  0  0  0  0  0  0  0
    2.8579   -4.9500    0.0000 O   0  0  0  0  0  0  0  0  0  0  0  0
    2.1434   -5.3625    0.0000 C   0  0  2  0  0  0  0  0  0  0  0  0
    2.1434   -6.1875    0.0000 C   0  0  0  0  0  0  0  0  0  0  0  0
    1.4289   -6.6000    0.0000 C   0  0  1  0  0  0  0  0  0  0  0  0
    0.7145   -6.1875    0.0000 C   0  0  1  0  0  0  0  0  0  0  0  0
    0.0000   -6.6000    0.0000 O   0  0  0  0  0  0  0  0  0  0  0  0
    0.7145   -5.3625    0.0000 C   0  0  2  0  0  0  0  0  0  0  0  0
    0.0000   -4.9500    0.0000 C   0  0  0  0  0  0  0  0  0  0  0  0
    1.4289   -4.9500    0.0000 O   0  0  0  0  0  0  0  0  0  0  0  0
    1.4289   -7.4250    0.0000 N   0  0  0  0  0  0  0  0  0  0  0  0
    0.7145   -7.8375    0.0000 C   0  0  0  0  0  0  0  0  0  0  0  0
    2.1434   -7.8375    0.0000 C   0  0  0  0  0  0  0  0  0  0  0  0
    3.5724   -3.7125    0.0000 C   0  0  0  0  0  0  0  0  0  0  0  0
    4.2868   -4.1250    0.0000 C   0  0  0  0  0  0  0  0  0  0  0  0
    4.2868   -4.9500    0.0000 O   0  0  0  0  0  0  0  0  0  0  0  0
    5.0013   -3.7125    0.0000 C   0  0  0  0  0  0  0  0  0  0  0  0
    5.0013   -2.8875    0.0000 C   0  0  0  0  0  0  0  0  0  0  0  0
    5.7158   -2.4750    0.0000 C   0  0  0  0  0  0  0  0  0  0  0  0
    5.7158   -1.6500    0.0000 O   0  0  0  0  0  0  0  0  0  0  0  0
    6.4302   -2.8875    0.0000 C   0  0  0  0  0  0  0  0  0  0  0  0
    7.1447   -2.4750    0.0000 C   0  0  0  0  0  0  0  0  0  0  0  0
    7.8592   -2.8875    0.0000 C   0  0  0  0  0  0  0  0  0  0  0  0
    7.8592   -3.7125    0.0000 C   0  0  0  0  0  0  0  0  0  0  0  0
    7.1447   -4.1250    0.0000 C   0  0  0  0  0  0  0  0  0  0  0  0
    7.1447   -4.9500    0.0000 O   0  0  0  0  0  0  0  0  0  0  0  0
    6.4302   -5.3625    0.0000 C   0  0  0  0  0  0  0  0  0  0  0  0
    6.4302   -3.7125    0.0000 C   0  0  0  0  0  0  0  0  0  0  0  0
    5.7158   -4.1250    0.0000 C   0  0  0  0  0  0  0  0  0  0  0  0
    5.7158   -4.9500    0.0000 O   0  0  0  0  0  0  0  0  0  0  0  0
    4.2868   -2.4750    0.0000 C   0  0  0  0  0  0  0  0  0  0  0  0
    4.2868   -1.6500    0.0000 O   0  0  0  0  0  0  0  0  0  0  0  0
    3.5724   -2.8875    0.0000 C   0  0  0  0  0  0  0  0  0  0  0  0
    2.8579   -2.4750    0.0000 C   0  0  2  0  0  0  0  0  0  0  0  0
    2.8579   -1.6500    0.0000 C   0  0  0  0  0  0  0  0  0  0  0  0
    3.5724   -1.2375    0.0000 O   0  0  0  0  0  0  0  0  0  0  0  0
    2.1434   -1.2375    0.0000 O   0  0  0  0  0  0  0  0  0  0  0  0
    2.1434   -0.4125    0.0000 C   0  0  0  0  0  0  0  0  0  0  0  0
  1  2  1  0  0  0  0
  3  2  1  6  0  0  0
  3  4  1  1  0  0  0
  3  5  1  0  0  0  0
  5  6  1  0  0  0  0
  6  7  1  1  0  0  0
  8  7  1  6  0  0  0
  8  9  1  0  0  0  0
  9 10  1  0  0  0  0
 10 11  1  0  0  0  0
 11 12  1  1  0  0  0
 11 13  1  0  0  0  0
 13 14  1  6  0  0  0
 13 15  1  0  0  0  0
  8 15  1  0  0  0  0
 10 16  1  6  0  0  0
 16 17  1  0  0  0  0
 16 18  1  0  0  0  0
  6 19  1  0  0  0  0
 19 20  2  0  0  0  0
 20 21  1  0  0  0  0
 20 22  1  0  0  0  0
 22 23  2  0  0  0  0
 23 24  1  0  0  0  0
 24 25  2  0  0  0  0
 24 26  1  0  0  0  0
 26 27  2  0  0  0  0
 27 28  1  0  0  0  0
 28 29  2  0  0  0  0
 29 30  1  0  0  0  0
 30 31  1  0  0  0  0
 31 32  1  0  0  0  0
 30 33  2  0  0  0  0
 26 33  1  0  0  0  0
 33 34  1  0  0  0  0
 22 34  1  0  0  0  0
 34 35  2  0  0  0  0
 23 36  1  0  0  0  0
 36 37  1  0  0  0  0
 36 38  2  0  0  0  0
 19 38  1  0  0  0  0
 38 39  1  0  0  0  0
  3 39  1  0  0  0  0
 39 40  1  1  0  0  0
 40 41  2  0  0  0  0
 40 42  1  0  0  0  0
 42 43  1  0  0  0  0
M  END
> <DRUGBANK_ID>
DB03199

> <DRUG_GROUPS>
experimental

> <GENERIC_NAME>
4-Methoxy-E-Rhodomycin T

> <CHEMICAL_FORMULA>
C31H37NO11

> <MOLECULAR_WEIGHT>
599.6256

> <EXACT_MASS>
599.236661031

> <IUPAC_NAME>
methyl (1S,2R,4S)-4-{[(2S,4S,5R,6S)-4-(dimethylamino)-5-hydroxy-6-methyloxan-2-yl]oxy}-2-ethyl-2,5,12-trihydroxy-7-methoxy-6,11-dioxo-1,2,3,4,6,11-hexahydrotetracene-1-carboxylate

> <IUPAC_TRADITIONAL_NAME>
4-methoxy-E-rhodomycin T

> <INCHI_IDENTIFIER>
InChI=1S/C31H37NO11/c1-7-31(39)12-17(43-18-11-15(32(3)4)25(33)13(2)42-18)20-21(24(31)30(38)41-6)29(37)22-23(28(20)36)27(35)19-14(26(22)34)9-8-10-16(19)40-5/h8-10,13,15,17-18,24-25,33,36-37,39H,7,11-12H2,1-6H3/t13-,15-,17-,18+,24+,25-,31+/m0/s1

> <INCHI_KEY>
InChIKey=XSSVYBYWQBNYOH-AEBUBZPMSA-N

> <SMILES>
CC[C@@]1(O)C[C@H](O[C@@H]2C[C@@H]([C@@H](O)[C@H](C)O2)N(C)C)C2=C(O)C3=C(C(O)=C2[C@@H]1C(=O)OC)C(=O)C1=CC=CC(OC)=C1C3=O

> <JCHEM_ACCEPTOR_COUNT>
11

> <JCHEM_DONOR_COUNT>
4

> <JCHEM_ACIDIC_PKA>
9.22

> <JCHEM_BASIC_PKA>
8.32

> <JCHEM_PHYSIOLOGICAL_CHARGE>
1

> <ALOGPS_LOGP>
2.22

> <JCHEM_LOGP>
3.11

> <ALOGPS_LOGS>
-3.1

> <JCHEM_POLARIZABILITY>
61.94

> <JCHEM_POLAR_SURFACE_AREA>
172.29

> <JCHEM_REFRACTIVITY>
153.3

> <JCHEM_ROTATABLE_BOND_COUNT>
7

> <ALOGPS_SOLUBILITY>
4.31e-01 g/l __ 

$$$$
