
  Mrv0541 02231217202D          

 43 46  0  0  1  0            999 V2000
    7.1447    0.0000    0.0000 O   0  0  0  0  0  0  0  0  0  0  0  0
    7.8592   -0.4125    0.0000 C   0  0  0  0  0  0  0  0  0  0  0  0
    7.8592   -1.2375    0.0000 C   0  0  1  0  0  0  0  0  0  0  0  0
    8.5737   -1.6500    0.0000 O   0  0  0  0  0  0  0  0  0  0  0  0
    8.5737   -2.4750    0.0000 C   0  0  1  0  0  0  0  0  0  0  0  0
    9.2881   -2.8875    0.0000 S   0  0  0  0  0  0  0  0  0  0  0  0
   10.0026   -2.4750    0.0000 C   0  0  2  0  0  0  0  0  0  0  0  0
   10.0026   -1.6500    0.0000 C   0  0  1  0  0  0  0  0  0  0  0  0
    9.2881   -1.2375    0.0000 O   0  0  0  0  0  0  0  0  0  0  0  0
   10.7171   -1.2375    0.0000 C   0  0  2  0  0  0  0  0  0  0  0  0
   10.7171   -0.4125    0.0000 C   0  0  0  0  0  0  0  0  0  0  0  0
   11.4315    0.0000    0.0000 O   0  0  0  0  0  0  0  0  0  0  0  0
   11.4315   -1.6500    0.0000 O   0  0  0  0  0  0  0  0  0  0  0  0
   11.4315   -2.4750    0.0000 C   0  0  2  0  0  0  0  0  0  0  0  0
   12.1460   -2.8875    0.0000 O   0  0  0  0  0  0  0  0  0  0  0  0
   12.8605   -2.4750    0.0000 C   0  0  1  0  0  0  0  0  0  0  0  0
   12.8605   -1.6500    0.0000 C   0  0  1  0  0  0  0  0  0  0  0  0
   12.1460   -1.2375    0.0000 O   0  0  0  0  0  0  0  0  0  0  0  0
   13.5749   -1.2375    0.0000 C   0  0  2  0  0  0  0  0  0  0  0  0
   13.5749   -0.4125    0.0000 C   0  0  0  0  0  0  0  0  0  0  0  0
   14.2894    0.0000    0.0000 O   0  0  0  0  0  0  0  0  0  0  0  0
   14.2894   -1.6500    0.0000 O   0  0  0  0  0  0  0  0  0  0  0  0
   14.2894   -2.4750    0.0000 C   0  0  2  0  0  0  0  0  0  0  0  0
   15.0039   -2.8875    0.0000 O   0  0  0  0  0  0  0  0  0  0  0  0
   15.0039   -3.7125    0.0000 C   0  0  0  0  0  0  0  0  0  0  0  0
   15.7184   -4.1250    0.0000 C   0  0  0  0  0  0  0  0  0  0  0  0
   15.7184   -4.9500    0.0000 C   0  0  0  0  0  0  0  0  0  0  0  0
   15.0039   -5.3625    0.0000 C   0  0  0  0  0  0  0  0  0  0  0  0
   14.2894   -4.9500    0.0000 C   0  0  0  0  0  0  0  0  0  0  0  0
   14.2894   -4.1250    0.0000 C   0  0  0  0  0  0  0  0  0  0  0  0
   15.0039   -6.1875    0.0000 N   0  3  0  0  0  0  0  0  0  0  0  0
   15.7184   -6.6000    0.0000 O   0  5  0  0  0  0  0  0  0  0  0  0
   14.2894   -6.6000    0.0000 O   0  0  0  0  0  0  0  0  0  0  0  0
   13.5749   -2.8875    0.0000 C   0  0  1  0  0  0  0  0  0  0  0  0
   13.5749   -3.7125    0.0000 O   0  0  0  0  0  0  0  0  0  0  0  0
   10.7171   -2.8875    0.0000 C   0  0  1  0  0  0  0  0  0  0  0  0
   10.7171   -3.7125    0.0000 O   0  0  0  0  0  0  0  0  0  0  0  0
    7.8592   -2.8875    0.0000 C   0  0  2  0  0  0  0  0  0  0  0  0
    7.8592   -3.7125    0.0000 O   0  0  0  0  0  0  0  0  0  0  0  0
    7.1447   -2.4750    0.0000 C   0  0  1  0  0  0  0  0  0  0  0  0
    6.4302   -2.8875    0.0000 O   0  0  0  0  0  0  0  0  0  0  0  0
    7.1447   -1.6500    0.0000 C   0  0  2  0  0  0  0  0  0  0  0  0
    6.4302   -1.2375    0.0000 O   0  0  0  0  0  0  0  0  0  0  0  0
  1  2  1  0  0  0  0
  3  2  1  1  0  0  0
  3  4  1  0  0  0  0
  4  5  1  0  0  0  0
  5  6  1  1  0  0  0
  7  6  1  6  0  0  0
  7  8  1  0  0  0  0
  8  9  1  1  0  0  0
  8 10  1  0  0  0  0
 10 11  1  6  0  0  0
 11 12  1  0  0  0  0
 10 13  1  0  0  0  0
 13 14  1  0  0  0  0
 14 15  1  6  0  0  0
 16 15  1  1  0  0  0
 16 17  1  0  0  0  0
 17 18  1  1  0  0  0
 17 19  1  0  0  0  0
 19 20  1  6  0  0  0
 20 21  1  0  0  0  0
 19 22  1  0  0  0  0
 22 23  1  0  0  0  0
 23 24  1  6  0  0  0
 24 25  1  0  0  0  0
 25 26  2  0  0  0  0
 26 27  1  0  0  0  0
 27 28  2  0  0  0  0
 28 29  1  0  0  0  0
 29 30  2  0  0  0  0
 25 30  1  0  0  0  0
 28 31  1  0  0  0  0
 31 32  1  0  0  0  0
 31 33  2  0  0  0  0
 23 34  1  0  0  0  0
 16 34  1  0  0  0  0
 34 35  1  1  0  0  0
 14 36  1  0  0  0  0
  7 36  1  0  0  0  0
 36 37  1  1  0  0  0
  5 38  1  0  0  0  0
 38 39  1  6  0  0  0
 38 40  1  0  0  0  0
 40 41  1  1  0  0  0
 40 42  1  0  0  0  0
  3 42  1  0  0  0  0
 42 43  1  6  0  0  0
M  END
> <DRUGBANK_ID>
DB03990

> <DRUG_GROUPS>
experimental

> <GENERIC_NAME>
4'-Nitrophenyl-3i-Thiolaminaritrioside

> <CHEMICAL_FORMULA>
C24H35NO17S

> <MOLECULAR_WEIGHT>
641.596

> <EXACT_MASS>
641.162569389

> <IUPAC_NAME>
(2S,3R,4S,5S,6R)-2-{[(2R,3R,4R,5S,6S)-2-{[(2S,3S,4S,5S,6R)-3,5-dihydroxy-2-(hydroxymethyl)-6-(4-nitrophenoxy)oxan-4-yl]oxy}-3,5-dihydroxy-6-(hydroxymethyl)oxan-4-yl]sulfanyl}-6-(hydroxymethyl)oxane-3,4,5-triol

> <IUPAC_TRADITIONAL_NAME>
(2S,3R,4S,5S,6R)-2-{[(2R,3R,4R,5S,6S)-2-{[(2S,3S,4S,5S,6R)-3,5-dihydroxy-2-(hydroxymethyl)-6-(4-nitrophenoxy)oxan-4-yl]oxy}-3,5-dihydroxy-6-(hydroxymethyl)oxan-4-yl]sulfanyl}-6-(hydroxymethyl)oxane-3,4,5-triol

> <INCHI_IDENTIFIER>
InChI=1S/C24H35NO17S/c26-5-10-13(29)16(32)17(33)24(41-10)43-21-15(31)12(7-28)40-23(19(21)35)42-20-14(30)11(6-27)39-22(18(20)34)38-9-3-1-8(2-4-9)25(36)37/h1-4,10-24,26-35H,5-7H2/t10-,11+,12+,13-,14+,15+,16+,17-,18+,19+,20+,21-,22+,23-,24+/m1/s1

> <INCHI_KEY>
InChIKey=VWNONHZCCMYIGR-PQRLTTHHSA-N

> <SMILES>
OC[C@H]1O[C@@H](S[C@@H]2[C@@H](O)[C@H](CO)O[C@H](O[C@H]3[C@@H](O)[C@H](CO)O[C@H](OC4=CC=C(C=C4)[N+]([O-])=O)[C@H]3O)[C@H]2O)[C@H](O)[C@@H](O)[C@@H]1O

> <JCHEM_ACCEPTOR_COUNT>
17

> <JCHEM_DONOR_COUNT>
10

> <JCHEM_ACIDIC_PKA>
11.97

> <JCHEM_BASIC_PKA>
-3

> <JCHEM_PHYSIOLOGICAL_CHARGE>
0

> <ALOGPS_LOGP>
-1.7

> <JCHEM_LOGP>
-3.9

> <ALOGPS_LOGS>
-1.1

> <JCHEM_POLARIZABILITY>
59.48

> <JCHEM_POLAR_SURFACE_AREA>
294.27

> <JCHEM_REFRACTIVITY>
138.69

> <JCHEM_ROTATABLE_BOND_COUNT>
10

> <ALOGPS_SOLUBILITY>
4.83e+01 g/l __ 

$$$$
