CR4
  Mrv0541 02231217052D          

 19 21  0  0  0  0            999 V2000
    1.9592    0.2871    0.0000 C   0  0  0  0  0  0  0  0  0  0  0  0
    1.9592   -0.5379    0.0000 C   0  0  0  0  0  0  0  0  0  0  0  0
    1.2447   -0.9504    0.0000 C   0  0  0  0  0  0  0  0  0  0  0  0
    0.5302   -0.5379    0.0000 C   0  0  0  0  0  0  0  0  0  0  0  0
    0.5302    0.2871    0.0000 C   0  0  0  0  0  0  0  0  0  0  0  0
    1.2447    0.6996    0.0000 C   0  0  0  0  0  0  0  0  0  0  0  0
    2.6736    0.6996    0.0000 C   0  0  0  0  0  0  0  0  0  0  0  0
    3.3881    0.2871    0.0000 N   0  0  0  0  0  0  0  0  0  0  0  0
    2.6736    1.5246    0.0000 N   0  3  0  0  0  0  0  0  0  0  0  0
   -0.2544   -0.7929    0.0000 N   0  0  0  0  0  0  0  0  0  0  0  0
   -0.2544    0.5420    0.0000 N   0  0  0  0  0  0  0  0  0  0  0  0
   -0.7393   -0.1254    0.0000 C   0  0  0  0  0  0  0  0  0  0  0  0
   -1.5643   -0.1254    0.0000 C   0  0  0  0  0  0  0  0  0  0  0  0
   -1.9768   -0.8399    0.0000 C   0  0  0  0  0  0  0  0  0  0  0  0
   -2.8018   -0.8399    0.0000 C   0  0  0  0  0  0  0  0  0  0  0  0
   -3.2143   -0.1254    0.0000 C   0  0  0  0  0  0  0  0  0  0  0  0
   -2.8018    0.5891    0.0000 C   0  0  0  0  0  0  0  0  0  0  0  0
   -1.9768    0.5891    0.0000 C   0  0  0  0  0  0  0  0  0  0  0  0
   -1.5643    1.3035    0.0000 O   0  5  0  0  0  0  0  0  0  0  0  0
  1  2  2  0  0  0  0
  1  6  1  0  0  0  0
  1  7  1  0  0  0  0
  2  3  1  0  0  0  0
  3  4  2  0  0  0  0
  4  5  1  0  0  0  0
  4 10  1  0  0  0  0
  5  6  2  0  0  0  0
  5 11  1  0  0  0  0
  7  8  1  0  0  0  0
  7  9  2  0  0  0  0
 10 12  1  0  0  0  0
 11 12  2  0  0  0  0
 12 13  1  0  0  0  0
 13 14  2  0  0  0  0
 13 18  1  0  0  0  0
 14 15  1  0  0  0  0
 15 16  2  0  0  0  0
 16 17  1  0  0  0  0
 17 18  2  0  0  0  0
 18 19  1  0  0  0  0
M  END
> <DRUGBANK_ID>
DB03643

> <DRUG_GROUPS>
experimental

> <GENERIC_NAME>
CRA_1144

> <CHEMICAL_FORMULA>
C14H12N4O

> <MOLECULAR_WEIGHT>
252.2713

> <EXACT_MASS>
252.101111026

> <IUPAC_NAME>
2-{5-[amino(iminiumyl)methyl]-1H-1,3-benzodiazol-2-yl}benzen-1-olate

> <IUPAC_TRADITIONAL_NAME>
2-{5-[amino(iminio)methyl]-1H-1,3-benzodiazol-2-yl}benzenolate

> <INCHI_IDENTIFIER>
InChI=1S/C14H12N4O/c15-13(16)8-5-6-10-11(7-8)18-14(17-10)9-3-1-2-4-12(9)19/h1-7,19H,(H3,15,16)(H,17,18)

> <INCHI_KEY>
InChIKey=URJKRCBBKTXOHS-UHFFFAOYSA-N

> <SMILES>
NC(=[NH2+])C1=CC=C2NC(=NC2=C1)C1=CC=CC=C1[O-]

> <JCHEM_ACCEPTOR_COUNT>
3

> <JCHEM_DONOR_COUNT>
3

> <JCHEM_ACIDIC_PKA>
9.12

> <JCHEM_BASIC_PKA>
10.62

> <JCHEM_PHYSIOLOGICAL_CHARGE>
1

> <ALOGPS_LOGP>
0.35

> <JCHEM_LOGP>
1.48

> <ALOGPS_LOGS>
-3.6

> <JCHEM_POLARIZABILITY>
27.24

> <JCHEM_POLAR_SURFACE_AREA>
103.35

> <JCHEM_REFRACTIVITY>
105.07

> <JCHEM_ROTATABLE_BOND_COUNT>
2

> <ALOGPS_SOLUBILITY>
6.91e-02 g/l __ 

$$$$
