
  Mrv0541 02231217002D          

 58 63  0  0  1  0            999 V2000
   -3.5724   -4.5375    0.0000 C   0  0  0  0  0  0  0  0  0  0  0  0
   -2.8579   -4.1250    0.0000 C   0  0  0  0  0  0  0  0  0  0  0  0
   -2.1434   -4.5375    0.0000 C   0  0  0  0  0  0  0  0  0  0  0  0
   -2.8579   -3.3000    0.0000 C   0  0  0  0  0  0  0  0  0  0  0  0
   -3.5724   -2.8875    0.0000 O   0  0  0  0  0  0  0  0  0  0  0  0
   -2.1434   -2.8875    0.0000 N   0  3  0  0  0  0  0  0  0  0  0  0
   -2.1434   -2.0625    0.0000 C   0  0  0  0  0  0  0  0  0  0  0  0
   -2.8579   -1.6500    0.0000 C   0  0  0  0  0  0  0  0  0  0  0  0
   -3.5724   -2.0625    0.0000 O   0  0  0  0  0  0  0  0  0  0  0  0
   -2.8579   -0.8250    0.0000 N   0  0  0  0  0  0  0  0  0  0  0  0
   -2.1434   -0.4125    0.0000 C   0  0  0  0  0  0  0  0  0  0  0  0
   -2.1434    0.4125    0.0000 O   0  0  0  0  0  0  0  0  0  0  0  0
   -1.4289   -0.8250    0.0000 N   0  0  0  0  0  0  0  0  0  0  0  0
   -1.4289   -1.6500    0.0000 C   0  0  0  0  0  0  0  0  0  0  0  0
   -0.7145   -2.0625    0.0000 N   0  0  0  0  0  0  0  0  0  0  0  0
    0.0000   -1.6500    0.0000 C   0  0  0  0  0  0  0  0  0  0  0  0
    0.7145   -2.0625    0.0000 C   0  0  1  0  0  0  0  0  0  0  0  0
    0.7145   -2.8875    0.0000 O   0  0  0  0  0  0  0  0  0  0  0  0
    1.4289   -1.6500    0.0000 C   0  0  1  0  0  0  0  0  0  0  0  0
    1.4289   -0.8250    0.0000 O   0  0  0  0  0  0  0  0  0  0  0  0
    2.1434   -2.0625    0.0000 C   0  0  2  0  0  0  0  0  0  0  0  0
    2.1434   -2.8875    0.0000 O   0  0  0  0  0  0  0  0  0  0  0  0
    2.8579   -1.6500    0.0000 C   0  0  0  0  0  0  0  0  0  0  0  0
    3.5724   -2.0625    0.0000 O   0  0  0  0  0  0  0  0  0  0  0  0
    4.2868   -1.6500    0.0000 P   0  0  2  0  0  0  0  0  0  0  0  0
    4.6993   -2.3645    0.0000 O   0  5  0  0  0  0  0  0  0  0  0  0
    3.8743   -0.9355    0.0000 O   0  0  0  0  0  0  0  0  0  0  0  0
    5.0013   -1.2375    0.0000 O   0  0  0  0  0  0  0  0  0  0  0  0
    5.7158   -1.6500    0.0000 P   0  0  1  0  0  0  0  0  0  0  0  0
    5.3033   -2.3645    0.0000 O   0  0  0  0  0  0  0  0  0  0  0  0
    6.1283   -0.9355    0.0000 O   0  0  0  0  0  0  0  0  0  0  0  0
    6.4302   -2.0625    0.0000 O   0  0  0  0  0  0  0  0  0  0  0  0
    7.1447   -1.6500    0.0000 C   0  0  0  0  0  0  0  0  0  0  0  0
    7.1447   -0.8250    0.0000 C   0  0  2  0  0  0  0  0  0  0  0  0
    6.4773   -0.3401    0.0000 O   0  0  0  0  0  0  0  0  0  0  0  0
    6.7322    0.4445    0.0000 C   0  0  2  0  0  0  0  0  0  0  0  0
    7.5572    0.4445    0.0000 C   0  0  2  0  0  0  0  0  0  0  0  0
    8.0421    1.1120    0.0000 O   0  0  0  0  0  0  0  0  0  0  0  0
    7.8121   -0.3401    0.0000 C   0  0  1  0  0  0  0  0  0  0  0  0
    8.5968   -0.5950    0.0000 O   0  0  0  0  0  0  0  0  0  0  0  0
    6.2473    1.1120    0.0000 N   0  0  0  0  0  0  0  0  0  0  0  0
    6.5022    1.8966    0.0000 C   0  0  0  0  0  0  0  0  0  0  0  0
    5.8348    2.3815    0.0000 N   0  0  0  0  0  0  0  0  0  0  0  0
    5.1673    1.8966    0.0000 C   0  0  0  0  0  0  0  0  0  0  0  0
    5.4223    1.1120    0.0000 C   0  0  0  0  0  0  0  0  0  0  0  0
    4.8703    0.4989    0.0000 N   0  0  0  0  0  0  0  0  0  0  0  0
    4.0633    0.6704    0.0000 C   0  0  0  0  0  0  0  0  0  0  0  0
    3.8083    1.4550    0.0000 N   0  0  0  0  0  0  0  0  0  0  0  0
    4.3604    2.0681    0.0000 C   0  0  0  0  0  0  0  0  0  0  0  0
    4.1054    2.8528    0.0000 N   0  0  0  0  0  0  0  0  0  0  0  0
   -0.7145   -2.8875    0.0000 C   0  0  0  0  0  0  0  0  0  0  0  0
    0.0000   -3.3000    0.0000 C   0  0  0  0  0  0  0  0  0  0  0  0
    0.0000   -4.1250    0.0000 C   0  0  0  0  0  0  0  0  0  0  0  0
    0.7145   -4.5375    0.0000 C   0  0  0  0  0  0  0  0  0  0  0  0
   -0.7145   -4.5375    0.0000 C   0  0  0  0  0  0  0  0  0  0  0  0
   -0.7145   -5.3625    0.0000 C   0  0  0  0  0  0  0  0  0  0  0  0
   -1.4289   -4.1250    0.0000 C   0  0  0  0  0  0  0  0  0  0  0  0
   -1.4289   -3.3000    0.0000 C   0  0  0  0  0  0  0  0  0  0  0  0
  1  2  1  0  0  0  0
  2  3  1  0  0  0  0
  2  4  1  0  0  0  0
  4  5  2  0  0  0  0
  4  6  1  0  0  0  0
  6  7  2  0  0  0  0
  7  8  1  0  0  0  0
  8  9  2  0  0  0  0
  8 10  1  0  0  0  0
 10 11  1  0  0  0  0
 11 12  2  0  0  0  0
 11 13  1  0  0  0  0
 13 14  2  0  0  0  0
  7 14  1  0  0  0  0
 14 15  1  0  0  0  0
 15 16  1  0  0  0  0
 16 17  1  0  0  0  0
 17 18  1  6  0  0  0
 17 19  1  0  0  0  0
 19 20  1  1  0  0  0
 19 21  1  0  0  0  0
 21 22  1  1  0  0  0
 21 23  1  0  0  0  0
 23 24  1  0  0  0  0
 25 24  1  6  0  0  0
 25 26  1  1  0  0  0
 25 27  2  0  0  0  0
 25 28  1  0  0  0  0
 29 28  1  1  0  0  0
 29 30  1  6  0  0  0
 29 31  2  0  0  0  0
 29 32  1  0  0  0  0
 32 33  1  0  0  0  0
 34 33  1  6  0  0  0
 34 35  1  0  0  0  0
 35 36  1  0  0  0  0
 36 37  1  0  0  0  0
 37 38  1  6  0  0  0
 37 39  1  0  0  0  0
 34 39  1  0  0  0  0
 39 40  1  1  0  0  0
 36 41  1  1  0  0  0
 41 42  1  0  0  0  0
 42 43  2  0  0  0  0
 43 44  1  0  0  0  0
 44 45  2  0  0  0  0
 41 45  1  0  0  0  0
 45 46  1  0  0  0  0
 46 47  2  0  0  0  0
 47 48  1  0  0  0  0
 48 49  2  0  0  0  0
 44 49  1  0  0  0  0
 49 50  1  0  0  0  0
 15 51  1  0  0  0  0
 51 52  2  0  0  0  0
 52 53  1  0  0  0  0
 53 54  1  0  0  0  0
 53 55  2  0  0  0  0
 55 56  1  0  0  0  0
 55 57  1  0  0  0  0
 57 58  2  0  0  0  0
  6 58  1  0  0  0  0
 51 58  1  0  0  0  0
M  END
> <DRUGBANK_ID>
DB03531

> <DRUG_GROUPS>
experimental

> <GENERIC_NAME>
Flavin-Adenine Dinucleotide-N5-Isobutyl Ketone

> <CHEMICAL_FORMULA>
C31H39N9O16P2

> <MOLECULAR_WEIGHT>
855.6396

> <EXACT_MASS>
855.198999269

> <IUPAC_NAME>
10-[(2R,3R,4R)-5-{[(S)-({[(2S,3R,4R,5R)-5-(6-amino-9H-purin-9-yl)-3,4-dihydroxyoxolan-2-yl]methoxy}(hydroxy)phosphoryl phosphonato)]oxy}-2,3,4-trihydroxypentyl]-7,8-dimethyl-5-(2-methylpropanoyl)-2,4-dioxo-2H,3H,4H,10H-benzo[g]pteridin-5-ium

> <IUPAC_TRADITIONAL_NAME>
10-[(2R,3R,4R)-5-{[(S)-([(2S,3R,4R,5R)-5-(6-aminopurin-9-yl)-3,4-dihydroxyoxolan-2-yl]methoxy(hydroxy)phosphoryl phosphonato)]oxy}-2,3,4-trihydroxypentyl]-7,8-dimethyl-5-(2-methylpropanoyl)-2,4-dioxo-3H-benzo[g]pteridin-5-ium

> <INCHI_IDENTIFIER>
InChI=1S/C31H39N9O16P2/c1-12(2)29(47)40-16-6-14(4)13(3)5-15(16)38(27-21(40)28(46)37-31(48)36-27)7-17(41)22(43)18(42)8-53-57(49,50)56-58(51,52)54-9-19-23(44)24(45)30(55-19)39-11-35-20-25(32)33-10-34-26(20)39/h5-6,10-12,17-19,22-24,30,41-45H,7-9H2,1-4H3,(H4-,32,33,34,37,46,48,49,50,51,52)/t17-,18-,19+,22-,23+,24-,30-/m1/s1

> <INCHI_KEY>
InChIKey=VVZGWZAMSAFRNS-UUVTYHGUSA-N

> <SMILES>
CC(C)C(=O)[N+]1=C2C(=O)NC(=O)N=C2N(C[C@@H](O)[C@@H](O)[C@H](O)CO[P@]([O-])(=O)O[P@@](O)(=O)OC[C@@H]2O[C@H]([C@H](O)[C@H]2O)N2C=NC3=C2N=CN=C3N)C2=CC(C)=C(C)C=C12

> <JCHEM_ACCEPTOR_COUNT>
19

> <JCHEM_DONOR_COUNT>
8

> <JCHEM_ACIDIC_PKA>
1.86

> <JCHEM_BASIC_PKA>
4.98

> <JCHEM_PHYSIOLOGICAL_CHARGE>
-2

> <ALOGPS_LOGP>
0.26

> <JCHEM_LOGP>
-5.4

> <ALOGPS_LOGS>
-2.8

> <JCHEM_POLARIZABILITY>
78.5

> <JCHEM_POLAR_SURFACE_AREA>
366.97

> <JCHEM_REFRACTIVITY>
193.66

> <JCHEM_ROTATABLE_BOND_COUNT>
14

> <ALOGPS_SOLUBILITY>
1.56e+00 g/l __ 

$$$$
