
  Mrv0541 02231217162D          

  8  8  0  0  1  0            999 V2000
    1.1296   -1.5764    0.0000 O   0  0  0  0  0  0  0  0  0  0  0  0
    1.4652   -0.8227    0.0000 C   0  0  0  0  0  0  0  0  0  0  0  0
    0.9803   -0.1553    0.0000 C   0  0  1  0  0  0  0  0  0  0  0  0
    0.1553   -0.1553    0.0000 C   0  0  0  0  0  0  0  0  0  0  0  0
   -0.0997    0.6294    0.0000 C   0  0  0  0  0  0  0  0  0  0  0  0
    0.5678    1.1143    0.0000 C   0  0  0  0  0  0  0  0  0  0  0  0
    0.5678    1.9393    0.0000 O   0  0  0  0  0  0  0  0  0  0  0  0
    1.2352    0.6294    0.0000 N   0  0  0  0  0  0  0  0  0  0  0  0
  1  2  2  0  0  0  0
  3  2  1  1  0  0  0
  3  4  1  0  0  0  0
  4  5  1  0  0  0  0
  5  6  1  0  0  0  0
  6  7  2  0  0  0  0
  6  8  1  0  0  0  0
  3  8  1  0  0  0  0
M  END
> <DRUGBANK_ID>
DB03901

> <DRUG_GROUPS>
experimental

> <GENERIC_NAME>
5-Oxo-Pyrrolidine-2-Carbaldehyde

> <CHEMICAL_FORMULA>
C5H7NO2

> <MOLECULAR_WEIGHT>
113.1146

> <EXACT_MASS>
113.047678473

> <IUPAC_NAME>
(2R)-5-oxopyrrolidine-2-carbaldehyde

> <IUPAC_TRADITIONAL_NAME>
(2R)-5-oxopyrrolidine-2-carbaldehyde

> <INCHI_IDENTIFIER>
InChI=1S/C5H7NO2/c7-3-4-1-2-5(8)6-4/h3-4H,1-2H2,(H,6,8)/t4-/m1/s1

> <INCHI_KEY>
InChIKey=XBGYMVTXOUKXLG-SCSAIBSYSA-N

> <SMILES>
O=C[C@H]1CCC(=O)N1

> <JCHEM_ACCEPTOR_COUNT>
2

> <JCHEM_DONOR_COUNT>
1

> <JCHEM_ACIDIC_PKA>
11.75

> <JCHEM_BASIC_PKA>
-1.6

> <JCHEM_PHYSIOLOGICAL_CHARGE>
0

> <ALOGPS_LOGP>
-0.99

> <JCHEM_LOGP>
-1

> <ALOGPS_LOGS>
-0.09

> <JCHEM_POLARIZABILITY>
10.71

> <JCHEM_POLAR_SURFACE_AREA>
46.17

> <JCHEM_REFRACTIVITY>
27.16

> <JCHEM_ROTATABLE_BOND_COUNT>
1

> <ALOGPS_SOLUBILITY>
9.23e+01 g/l __ 

$$$$
