
  Mrv0541 02231217122D          

 27 29  0  0  0  0            999 V2000
    0.0000    0.0000    0.0000 N   0  0  0  0  0  0  0  0  0  0  0  0
    0.7145   -0.4125    0.0000 C   0  0  0  0  0  0  0  0  0  0  0  0
    1.4289    0.0000    0.0000 N   0  0  0  0  0  0  0  0  0  0  0  0
    2.1434   -0.4125    0.0000 C   0  0  0  0  0  0  0  0  0  0  0  0
    2.8579    0.0000    0.0000 N   0  0  0  0  0  0  0  0  0  0  0  0
    3.5724   -0.4125    0.0000 C   0  0  0  0  0  0  0  0  0  0  0  0
    3.5724   -1.2375    0.0000 C   0  0  0  0  0  0  0  0  0  0  0  0
    4.2868   -1.6500    0.0000 C   0  0  0  0  0  0  0  0  0  0  0  0
    5.0013   -1.2375    0.0000 N   0  0  0  0  0  0  0  0  0  0  0  0
    5.7158   -1.6500    0.0000 C   0  0  0  0  0  0  0  0  0  0  0  0
    6.4302   -1.2375    0.0000 C   0  0  0  0  0  0  0  0  0  0  0  0
    7.1447   -1.6500    0.0000 C   0  0  0  0  0  0  0  0  0  0  0  0
    7.1447   -2.4750    0.0000 C   0  0  0  0  0  0  0  0  0  0  0  0
    6.4302   -2.8875    0.0000 C   0  0  0  0  0  0  0  0  0  0  0  0
    5.7158   -2.4750    0.0000 C   0  0  0  0  0  0  0  0  0  0  0  0
    7.8592   -2.8875    0.0000 C   0  0  0  0  0  0  0  0  0  0  0  0
    8.5737   -2.4750    0.0000 O   0  0  0  0  0  0  0  0  0  0  0  0
    7.8592   -3.7125    0.0000 O   0  0  0  0  0  0  0  0  0  0  0  0
    8.5737   -4.1250    0.0000 P   0  0  0  0  0  0  0  0  0  0  0  0
    9.2881   -4.5375    0.0000 O   0  0  0  0  0  0  0  0  0  0  0  0
    8.1612   -4.8395    0.0000 O   0  0  0  0  0  0  0  0  0  0  0  0
    8.9862   -3.4105    0.0000 O   0  0  0  0  0  0  0  0  0  0  0  0
    2.8579   -1.6500    0.0000 N   0  0  0  0  0  0  0  0  0  0  0  0
    2.1434   -1.2375    0.0000 C   0  0  0  0  0  0  0  0  0  0  0  0
    1.4289   -1.6500    0.0000 C   0  0  0  0  0  0  0  0  0  0  0  0
    1.4289   -2.4750    0.0000 O   0  0  0  0  0  0  0  0  0  0  0  0
    0.7145   -1.2375    0.0000 N   0  0  0  0  0  0  0  0  0  0  0  0
  1  2  1  0  0  0  0
  2  3  2  0  0  0  0
  3  4  1  0  0  0  0
  4  5  2  0  0  0  0
  5  6  1  0  0  0  0
  6  7  2  0  0  0  0
  7  8  1  0  0  0  0
  8  9  1  0  0  0  0
  9 10  1  0  0  0  0
 10 11  2  0  0  0  0
 11 12  1  0  0  0  0
 12 13  2  0  0  0  0
 13 14  1  0  0  0  0
 14 15  2  0  0  0  0
 10 15  1  0  0  0  0
 13 16  1  0  0  0  0
 16 17  2  0  0  0  0
 16 18  1  0  0  0  0
 18 19  1  0  0  0  0
 19 20  1  0  0  0  0
 19 21  1  0  0  0  0
 19 22  2  0  0  0  0
  7 23  1  0  0  0  0
 23 24  2  0  0  0  0
  4 24  1  0  0  0  0
 24 25  1  0  0  0  0
 25 26  2  0  0  0  0
 25 27  1  0  0  0  0
  2 27  1  0  0  0  0
M  END
> <DRUGBANK_ID>
DB03830

> <DRUG_GROUPS>
experimental

> <GENERIC_NAME>
Phosphorylated Dihydropteroate

> <CHEMICAL_FORMULA>
C14H13N6O6P

> <MOLECULAR_WEIGHT>
392.2634

> <EXACT_MASS>
392.06341869

> <IUPAC_NAME>
[(4-{[(2-amino-4-oxo-3,4-dihydropteridin-6-yl)methyl]amino}phenyl)carbonyloxy]phosphonic acid

> <IUPAC_TRADITIONAL_NAME>
(4-{[(2-amino-4-oxo-3H-pteridin-6-yl)methyl]amino}phenyl)carbonyloxyphosphonic acid

> <INCHI_IDENTIFIER>
InChI=1S/C14H13N6O6P/c15-14-19-11-10(12(21)20-14)18-9(6-17-11)5-16-8-3-1-7(2-4-8)13(22)26-27(23,24)25/h1-4,6,16H,5H2,(H2,23,24,25)(H3,15,17,19,20,21)

> <INCHI_KEY>
InChIKey=DNKVHXNVVYQUDC-UHFFFAOYSA-N

> <SMILES>
NC1=NC2=NC=C(CNC3=CC=C(C=C3)C(=O)OP(O)(O)=O)N=C2C(=O)N1

> <JCHEM_ACCEPTOR_COUNT>
10

> <JCHEM_DONOR_COUNT>
5

> <JCHEM_ACIDIC_PKA>
1.16

> <JCHEM_BASIC_PKA>
1.83

> <JCHEM_PHYSIOLOGICAL_CHARGE>
-2

> <ALOGPS_LOGP>
0.18

> <JCHEM_LOGP>
-1

> <ALOGPS_LOGS>
-2.9

> <JCHEM_POLARIZABILITY>
35.78

> <JCHEM_POLAR_SURFACE_AREA>
189.12

> <JCHEM_REFRACTIVITY>
94.52

> <JCHEM_ROTATABLE_BOND_COUNT>
6

> <ALOGPS_SOLUBILITY>
5.16e-01 g/l __ 

$$$$
