
  Mrv0541 02231217162D          

  6  5  0  0  0  0            999 V2000
    0.8250    1.4289    0.0000 O   0  0  0  0  0  0  0  0  0  0  0  0
    1.2375    0.7145    0.0000 C   0  0  0  0  0  0  0  0  0  0  0  0
    2.0625    0.7145    0.0000 O   0  0  0  0  0  0  0  0  0  0  0  0
    0.8250    0.0000    0.0000 C   0  0  0  0  0  0  0  0  0  0  0  0
    1.2375   -0.7145    0.0000 O   0  0  0  0  0  0  0  0  0  0  0  0
    0.0000    0.0000    0.0000 O   0  0  0  0  0  0  0  0  0  0  0  0
  1  2  1  0  0  0  0
  2  3  2  0  0  0  0
  2  4  1  0  0  0  0
  4  5  1  0  0  0  0
  4  6  2  0  0  0  0
M  END
> <DRUGBANK_ID>
DB03902

> <DRUG_GROUPS>
experimental

> <GENERIC_NAME>
Oxalic Acid

> <CHEMICAL_FORMULA>
C2H2O4

> <MOLECULAR_WEIGHT>
90.0349

> <EXACT_MASS>
89.995308552

> <IUPAC_NAME>
oxalic acid

> <IUPAC_TRADITIONAL_NAME>
oxalic acid

> <INCHI_IDENTIFIER>
InChI=1S/C2H2O4/c3-1(4)2(5)6/h(H,3,4)(H,5,6)

> <INCHI_KEY>
InChIKey=MUBZPKHOEPUJKR-UHFFFAOYSA-N

> <SMILES>
OC(=O)C(O)=O

> <JCHEM_ACCEPTOR_COUNT>
4

> <JCHEM_DONOR_COUNT>
2

> <JCHEM_ACIDIC_PKA>
1.36

> <JCHEM_PHYSIOLOGICAL_CHARGE>
-2

> <ALOGPS_LOGP>
-0.51

> <JCHEM_LOGP>
-0.26

> <ALOGPS_LOGS>
-0.14

> <JCHEM_POLARIZABILITY>
6.23

> <JCHEM_POLAR_SURFACE_AREA>
74.6

> <JCHEM_REFRACTIVITY>
14.44

> <JCHEM_ROTATABLE_BOND_COUNT>
1

> <ALOGPS_SOLUBILITY>
6.57e+01 g/l __ 

$$$$
