
  Mrv0541 02231216412D          

  9  8  0  0  1  0            999 V2000
    1.9520    1.9520    0.0000 N   0  0  0  0  0  0  0  0  0  0  0  0
    1.9520    1.1270    0.0000 C   0  0  2  0  0  0  0  0  0  0  0  0
    1.2375    0.7145    0.0000 C   0  0  0  0  0  0  0  0  0  0  0  0
    0.5230    1.1270    0.0000 C   0  0  0  0  0  0  0  0  0  0  0  0
   -0.1914    0.7145    0.0000 O   0  0  0  0  0  0  0  0  0  0  0  0
    0.5230    1.9520    0.0000 O   0  0  0  0  0  0  0  0  0  0  0  0
    2.6664    0.7145    0.0000 C   0  0  0  0  0  0  0  0  0  0  0  0
    3.3809    1.1270    0.0000 O   0  5  0  0  0  0  0  0  0  0  0  0
    2.6664   -0.1105    0.0000 O   0  0  0  0  0  0  0  0  0  0  0  0
  2  1  1  1  0  0  0
  2  3  1  0  0  0  0
  3  4  1  0  0  0  0
  4  5  1  0  0  0  0
  4  6  2  0  0  0  0
  2  7  1  0  0  0  0
  7  8  1  0  0  0  0
  7  9  2  0  0  0  0
M  END
> <DRUGBANK_ID>
DB03089

> <DRUG_GROUPS>
experimental

> <GENERIC_NAME>
L-Iso-Aspartate

> <CHEMICAL_FORMULA>
C4H6NO4

> <MOLECULAR_WEIGHT>
132.0947

> <EXACT_MASS>
132.029682685

> <IUPAC_NAME>
(2R)-2-amino-3-carboxypropanoate

> <IUPAC_TRADITIONAL_NAME>
L-iso-aspartate

> <INCHI_IDENTIFIER>
InChI=1S/C4H7NO4/c5-2(4(8)9)1-3(6)7/h2H,1,5H2,(H,6,7)(H,8,9)/p-1/t2-/m1/s1

> <INCHI_KEY>
InChIKey=CKLJMWTZIZZHCS-UWTATZPHSA-M

> <SMILES>
N[C@H](CC(O)=O)C([O-])=O

> <JCHEM_ACCEPTOR_COUNT>
5

> <JCHEM_DONOR_COUNT>
2

> <JCHEM_ACIDIC_PKA>
1.7

> <JCHEM_BASIC_PKA>
9.61

> <JCHEM_PHYSIOLOGICAL_CHARGE>
-1

> <ALOGPS_LOGP>
-3.2

> <JCHEM_LOGP>
-3.5

> <ALOGPS_LOGS>
0.39

> <JCHEM_POLARIZABILITY>
10.92

> <JCHEM_POLAR_SURFACE_AREA>
103.45

> <JCHEM_REFRACTIVITY>
37.37

> <JCHEM_ROTATABLE_BOND_COUNT>
3

> <ALOGPS_SOLUBILITY>
3.72e+02 g/l __ 

$$$$
