
  Mrv0541 02231216372D          

  8  8  0  0  0  0            999 V2000
    0.7145   -1.2375    0.0000 O   0  0  0  0  0  0  0  0  0  0  0  0
    0.7145   -0.4125    0.0000 C   0  0  0  0  0  0  0  0  0  0  0  0
    0.0000    0.0000    0.0000 C   0  0  0  0  0  0  0  0  0  0  0  0
    0.0000    0.8250    0.0000 C   0  0  0  0  0  0  0  0  0  0  0  0
    0.7145    1.2375    0.0000 C   0  0  0  0  0  0  0  0  0  0  0  0
    0.7145    2.0625    0.0000 I   0  0  0  0  0  0  0  0  0  0  0  0
    1.4289    0.8250    0.0000 C   0  0  0  0  0  0  0  0  0  0  0  0
    1.4289    0.0000    0.0000 C   0  0  0  0  0  0  0  0  0  0  0  0
  1  2  1  0  0  0  0
  2  3  2  0  0  0  0
  3  4  1  0  0  0  0
  4  5  2  0  0  0  0
  5  6  1  0  0  0  0
  5  7  1  0  0  0  0
  7  8  2  0  0  0  0
  2  8  1  0  0  0  0
M  END
> <DRUGBANK_ID>
DB03002

> <DRUG_GROUPS>
experimental

> <GENERIC_NAME>
4-Iodophenol

> <CHEMICAL_FORMULA>
C6H5IO

> <MOLECULAR_WEIGHT>
220.0078

> <EXACT_MASS>
219.938508202

> <IUPAC_NAME>
4-iodophenol

> <IUPAC_TRADITIONAL_NAME>
4-iodophenol

> <INCHI_IDENTIFIER>
InChI=1S/C6H5IO/c7-5-1-3-6(8)4-2-5/h1-4,8H

> <INCHI_KEY>
InChIKey=VSMDINRNYYEDRN-UHFFFAOYSA-N

> <SMILES>
OC1=CC=C(I)C=C1

> <JCHEM_ACCEPTOR_COUNT>
1

> <JCHEM_DONOR_COUNT>
1

> <JCHEM_ACIDIC_PKA>
9.1

> <JCHEM_BASIC_PKA>
-6.3

> <JCHEM_PHYSIOLOGICAL_CHARGE>
0

> <ALOGPS_LOGP>
2.92

> <JCHEM_LOGP>
2.6

> <ALOGPS_LOGS>
-2.4

> <JCHEM_POLARIZABILITY>
15.22

> <JCHEM_POLAR_SURFACE_AREA>
20.23

> <JCHEM_REFRACTIVITY>
41.4

> <JCHEM_ROTATABLE_BOND_COUNT>
0

> <ALOGPS_SOLUBILITY>
9.77e-01 g/l __ 

$$$$
