
  Mrv0541 02231216522D          

 16 18  0  0  1  0            999 V2000
    4.0716    1.5745    0.0000 N   0  0  0  0  0  0  0  0  0  0  0  0
    3.2470    1.5487    0.0000 C   0  0  0  0  0  0  0  0  0  0  0  0
    2.8124    2.2499    0.0000 N   0  0  0  0  0  0  0  0  0  0  0  0
    1.9878    2.2242    0.0000 C   0  0  0  0  0  0  0  0  0  0  0  0
    1.5978    1.4972    0.0000 C   0  0  0  0  0  0  0  0  0  0  0  0
    0.7732    1.4714    0.0000 N   0  0  0  0  0  0  0  0  0  0  0  0
    0.3386    2.1727    0.0000 C   0  0  2  0  0  0  0  0  0  0  0  0
    0.7286    2.8997    0.0000 C   0  0  0  0  0  0  0  0  0  0  0  0
    1.5532    2.9254    0.0000 N   0  0  0  0  0  0  0  0  0  0  0  0
   -0.4626    1.9760    0.0000 C   0  0  0  0  0  0  0  0  0  0  0  0
   -0.5232    1.1532    0.0000 O   0  0  0  0  0  0  0  0  0  0  0  0
    0.2406    0.8414    0.0000 C   0  0  0  0  0  0  0  0  0  0  0  0
    0.4373    0.0402    0.0000 O   0  0  0  0  0  0  0  0  0  0  0  0
    2.0325    0.7959    0.0000 C   0  0  0  0  0  0  0  0  0  0  0  0
    1.6425    0.0689    0.0000 O   0  0  0  0  0  0  0  0  0  0  0  0
    2.8571    0.8217    0.0000 N   0  0  0  0  0  0  0  0  0  0  0  0
  1  2  1  0  0  0  0
  2  3  2  0  0  0  0
  3  4  1  0  0  0  0
  4  5  2  0  0  0  0
  5  6  1  0  0  0  0
  7  6  1  1  0  0  0
  7  8  1  0  0  0  0
  8  9  1  0  0  0  0
  4  9  1  0  0  0  0
  7 10  1  0  0  0  0
 10 11  1  0  0  0  0
 11 12  1  0  0  0  0
  6 12  1  0  0  0  0
 12 13  2  0  0  0  0
  5 14  1  0  0  0  0
 14 15  2  0  0  0  0
 14 16  1  0  0  0  0
  2 16  1  0  0  0  0
M  END
> <DRUGBANK_ID>
DB03332

> <DRUG_GROUPS>
experimental

> <GENERIC_NAME>
5,6-Cyclic-Tetrahydropteridine

> <CHEMICAL_FORMULA>
C8H9N5O3

> <MOLECULAR_WEIGHT>
223.1888

> <EXACT_MASS>
223.070539179

> <IUPAC_NAME>
(6aR)-3-amino-1H,2H,5H,6H,6aH,7H,9H-[1,3]oxazolo[3,4-f]pteridine-1,9-dione

> <IUPAC_TRADITIONAL_NAME>
(6aR)-3-amino-2H,5H,6H,6aH,7H-[1,3]oxazolo[3,4-f]pteridine-1,9-dione

> <INCHI_IDENTIFIER>
InChI=1S/C8H9N5O3/c9-7-11-5-4(6(14)12-7)13-3(1-10-5)2-16-8(13)15/h3H,1-2H2,(H4,9,10,11,12,14)/t3-/m1/s1

> <INCHI_KEY>
InChIKey=XAZOBOCYEGBXHD-GSVOUGTGSA-N

> <SMILES>
NC1=NC2=C(N3[C@@H](COC3=O)CN2)C(=O)N1

> <JCHEM_ACCEPTOR_COUNT>
5

> <JCHEM_DONOR_COUNT>
3

> <JCHEM_ACIDIC_PKA>
11.08

> <JCHEM_BASIC_PKA>
4.19

> <JCHEM_PHYSIOLOGICAL_CHARGE>
0

> <ALOGPS_LOGP>
-1.6

> <JCHEM_LOGP>
-1.4

> <ALOGPS_LOGS>
-1.7

> <JCHEM_POLARIZABILITY>
20

> <JCHEM_POLAR_SURFACE_AREA>
109.05

> <JCHEM_REFRACTIVITY>
61.18

> <JCHEM_ROTATABLE_BOND_COUNT>
0

> <ALOGPS_SOLUBILITY>
4.26e+00 g/l __ 

$$$$
