
  Mrv0541 02231216462D          

 11 11  0  0  0  0            999 V2000
    2.8579    0.0000    0.0000 O   0  0  0  0  0  0  0  0  0  0  0  0
    2.1434   -0.4125    0.0000 C   0  0  0  0  0  0  0  0  0  0  0  0
    2.1434   -1.2375    0.0000 O   0  0  0  0  0  0  0  0  0  0  0  0
    1.4289    0.0000    0.0000 C   0  0  0  0  0  0  0  0  0  0  0  0
    0.7145   -0.4125    0.0000 N   0  0  0  0  0  0  0  0  0  0  0  0
    0.0000    0.0000    0.0000 C   0  0  0  0  0  0  0  0  0  0  0  0
   -0.7145   -0.4125    0.0000 O   0  0  0  0  0  0  0  0  0  0  0  0
    0.0000    0.8250    0.0000 N   0  0  0  0  0  0  0  0  0  0  0  0
    0.7145    1.2375    0.0000 C   0  0  0  0  0  0  0  0  0  0  0  0
    0.7145    2.0625    0.0000 O   0  0  0  0  0  0  0  0  0  0  0  0
    1.4289    0.8250    0.0000 N   0  0  0  0  0  0  0  0  0  0  0  0
  1  2  1  0  0  0  0
  2  3  2  0  0  0  0
  2  4  1  0  0  0  0
  4  5  2  0  0  0  0
  5  6  1  0  0  0  0
  6  7  2  0  0  0  0
  6  8  1  0  0  0  0
  8  9  1  0  0  0  0
  9 10  2  0  0  0  0
  9 11  1  0  0  0  0
  4 11  1  0  0  0  0
M  END
> <DRUGBANK_ID>
DB03209

> <DRUG_GROUPS>
experimental

> <GENERIC_NAME>
Oxonic Acid

> <SYNONYMS>
5-azaorotic acid; Allantoxanic acid; Oxonate

> <CHEMICAL_FORMULA>
C4H3N3O4

> <MOLECULAR_WEIGHT>
157.0843

> <EXACT_MASS>
157.012355599

> <IUPAC_NAME>
4,6-dioxo-1,4,5,6-tetrahydro-1,3,5-triazine-2-carboxylic acid

> <IUPAC_TRADITIONAL_NAME>
oxonic acid

> <INCHI_IDENTIFIER>
InChI=1S/C4H3N3O4/c8-2(9)1-5-3(10)7-4(11)6-1/h(H,8,9)(H2,5,6,7,10,11)

> <INCHI_KEY>
InChIKey=RYYCJUAHISIHTL-UHFFFAOYSA-N

> <SMILES>
OC(=O)C1=NC(=O)NC(=O)N1

> <JCHEM_ACCEPTOR_COUNT>
5

> <JCHEM_DONOR_COUNT>
3

> <JCHEM_ACIDIC_PKA>
2.14

> <JCHEM_PHYSIOLOGICAL_CHARGE>
-1

> <ALOGPS_LOGP>
-1.1

> <JCHEM_LOGP>
-1.2

> <ALOGPS_LOGS>
-1.3

> <JCHEM_POLARIZABILITY>
11.88

> <JCHEM_POLAR_SURFACE_AREA>
107.86

> <JCHEM_REFRACTIVITY>
29.7

> <JCHEM_ROTATABLE_BOND_COUNT>
1

> <ALOGPS_SOLUBILITY>
7.15e+00 g/l __ 

$$$$
