
  Mrv0541 02231216512D          

 11 11  0  0  0  0            999 V2000
    2.1434    1.2375    0.0000 C   0  0  0  0  0  0  0  0  0  0  0  0
    1.4289    0.8250    0.0000 C   0  0  0  0  0  0  0  0  0  0  0  0
    1.4289    0.0000    0.0000 C   0  0  0  0  0  0  0  0  0  0  0  0
    0.7145   -0.4125    0.0000 C   0  0  0  0  0  0  0  0  0  0  0  0
    0.0000    0.0000    0.0000 C   0  0  0  0  0  0  0  0  0  0  0  0
    0.0000    0.8250    0.0000 C   0  0  0  0  0  0  0  0  0  0  0  0
   -0.7145    1.2375    0.0000 C   0  0  0  0  0  0  0  0  0  0  0  0
   -0.7145    2.0625    0.0000 C   0  0  0  0  0  0  0  0  0  0  0  0
   -1.4289    2.4750    0.0000 C   0  0  0  0  0  0  0  0  0  0  0  0
    0.7145    1.2375    0.0000 C   0  0  0  0  0  0  0  0  0  0  0  0
    0.7145    2.0625    0.0000 O   0  0  0  0  0  0  0  0  0  0  0  0
  1  2  1  0  0  0  0
  2  3  2  0  0  0  0
  3  4  1  0  0  0  0
  4  5  2  0  0  0  0
  5  6  1  0  0  0  0
  6  7  1  0  0  0  0
  7  8  1  0  0  0  0
  8  9  2  0  0  0  0
  6 10  2  0  0  0  0
  2 10  1  0  0  0  0
 10 11  1  0  0  0  0
M  END
> <DRUGBANK_ID>
DB03301

> <DRUG_GROUPS>
experimental

> <GENERIC_NAME>
2-Allyl-6-Methyl-Phenol

> <CHEMICAL_FORMULA>
C10H12O

> <MOLECULAR_WEIGHT>
148.2017

> <EXACT_MASS>
148.088815006

> <IUPAC_NAME>
2-methyl-6-(prop-2-en-1-yl)phenol

> <IUPAC_TRADITIONAL_NAME>
2-allyl-6-methyl-phenol

> <INCHI_IDENTIFIER>
InChI=1S/C10H12O/c1-3-5-9-7-4-6-8(2)10(9)11/h3-4,6-7,11H,1,5H2,2H3

> <INCHI_KEY>
InChIKey=WREVCRYZAWNLRZ-UHFFFAOYSA-N

> <SMILES>
CC1=CC=CC(CC=C)=C1O

> <JCHEM_ACCEPTOR_COUNT>
1

> <JCHEM_DONOR_COUNT>
1

> <JCHEM_ACIDIC_PKA>
9.7

> <JCHEM_BASIC_PKA>
-6

> <JCHEM_PHYSIOLOGICAL_CHARGE>
0

> <ALOGPS_LOGP>
2.72

> <JCHEM_LOGP>
3.28

> <ALOGPS_LOGS>
-2

> <JCHEM_POLARIZABILITY>
16.89

> <JCHEM_POLAR_SURFACE_AREA>
20.23

> <JCHEM_REFRACTIVITY>
47.37

> <JCHEM_ROTATABLE_BOND_COUNT>
2

> <ALOGPS_SOLUBILITY>
1.35e+00 g/l __ 

$$$$
