
  Mrv0541 02231216542D          

 23 24  0  0  1  0            999 V2000
   -4.8605   -2.4225    0.0000 C   0  0  0  0  0  0  0  0  0  0  0  0
   -4.1461   -2.8350    0.0000 S   0  0  0  0  0  0  0  0  0  0  0  0
   -3.4316   -2.4225    0.0000 C   0  0  0  0  0  0  0  0  0  0  0  0
   -2.7171   -2.8350    0.0000 C   0  0  0  0  0  0  0  0  0  0  0  0
   -2.0026   -2.4225    0.0000 C   0  0  1  0  0  0  0  0  0  0  0  0
   -2.0026   -1.5975    0.0000 N   0  0  0  0  0  0  0  0  0  0  0  0
   -1.2882   -2.8350    0.0000 C   0  0  0  0  0  0  0  0  0  0  0  0
   -0.5345   -2.4994    0.0000 N   0  0  0  0  0  0  0  0  0  0  0  0
    0.0175   -3.1125    0.0000 C   0  0  0  0  0  0  0  0  0  0  0  0
    0.8380   -3.0263    0.0000 C   0  0  0  0  0  0  0  0  0  0  0  0
    1.1736   -2.2726    0.0000 C   0  0  0  0  0  0  0  0  0  0  0  0
    0.6886   -1.6052    0.0000 C   0  0  0  0  0  0  0  0  0  0  0  0
    1.0242   -0.8515    0.0000 C   0  0  0  0  0  0  0  0  0  0  0  0
    1.8447   -0.7653    0.0000 C   0  0  0  0  0  0  0  0  0  0  0  0
    2.1802   -0.0116    0.0000 O   0  0  0  0  0  0  0  0  0  0  0  0
    2.3296   -1.4327    0.0000 C   0  0  0  0  0  0  0  0  0  0  0  0
    1.9940   -2.1864    0.0000 C   0  0  0  0  0  0  0  0  0  0  0  0
   -0.3950   -3.8270    0.0000 C   0  0  0  0  0  0  0  0  0  0  0  0
   -0.0594   -4.5807    0.0000 O   0  0  0  0  0  0  0  0  0  0  0  0
   -1.2019   -3.6555    0.0000 N   0  0  0  0  0  0  0  0  0  0  0  0
   -1.8150   -4.2075    0.0000 C   0  0  0  0  0  0  0  0  0  0  0  0
   -1.6435   -5.0145    0.0000 C   0  0  0  0  0  0  0  0  0  0  0  0
   -2.2566   -5.5665    0.0000 O   0  0  0  0  0  0  0  0  0  0  0  0
  1  2  1  0  0  0  0
  2  3  1  0  0  0  0
  3  4  1  0  0  0  0
  4  5  1  0  0  0  0
  5  6  1  1  0  0  0
  5  7  1  0  0  0  0
  7  8  2  0  0  0  0
  8  9  1  0  0  0  0
  9 10  2  0  0  0  0
 10 11  1  0  0  0  0
 11 12  2  0  0  0  0
 12 13  1  0  0  0  0
 13 14  2  0  0  0  0
 14 15  1  0  0  0  0
 14 16  1  0  0  0  0
 16 17  2  0  0  0  0
 11 17  1  0  0  0  0
  9 18  1  0  0  0  0
 18 19  2  0  0  0  0
 18 20  1  0  0  0  0
  7 20  1  0  0  0  0
 20 21  1  0  0  0  0
 21 22  1  0  0  0  0
 22 23  2  0  0  0  0
M  END
> <DRUGBANK_ID>
DB03391

> <DRUG_GROUPS>
experimental

> <GENERIC_NAME>
Chromophore (Met-Tyr-Gly)

> <CHEMICAL_FORMULA>
C16H19N3O3S

> <MOLECULAR_WEIGHT>
333.405

> <EXACT_MASS>
333.114712179

> <IUPAC_NAME>
2-[(4Z)-2-[(1R)-1-amino-3-(methylsulfanyl)propyl]-4-[(4-hydroxyphenyl)methylidene]-5-oxo-4,5-dihydro-1H-imidazol-1-yl]acetaldehyde

> <IUPAC_TRADITIONAL_NAME>
chromophore (met-tyr-gly)

> <INCHI_IDENTIFIER>
InChI=1S/C16H19N3O3S/c1-23-9-6-13(17)15-18-14(16(22)19(15)7-8-20)10-11-2-4-12(21)5-3-11/h2-5,8,10,13,21H,6-7,9,17H2,1H3/b14-10-/t13-/m1/s1

> <INCHI_KEY>
InChIKey=LJIOFGMVTCMLFG-JFBXQDQPSA-N

> <SMILES>
CSCC[C@@H](N)C1=N\C(=C/C2=CC=C(O)C=C2)C(=O)N1CC=O

> <JCHEM_ACCEPTOR_COUNT>
5

> <JCHEM_DONOR_COUNT>
2

> <JCHEM_ACIDIC_PKA>
9.25

> <JCHEM_BASIC_PKA>
7.85

> <JCHEM_PHYSIOLOGICAL_CHARGE>
1

> <ALOGPS_LOGP>
1.21

> <JCHEM_LOGP>
0.33

> <ALOGPS_LOGS>
-3.3

> <JCHEM_POLARIZABILITY>
35.67

> <JCHEM_POLAR_SURFACE_AREA>
95.99

> <JCHEM_REFRACTIVITY>
92.09

> <JCHEM_ROTATABLE_BOND_COUNT>
7

> <ALOGPS_SOLUBILITY>
1.57e-01 g/l __ 

$$$$
