
  Mrv0541 02231216582D          

 39 42  0  0  1  0            999 V2000
  -10.3044   -0.7734    0.0000 C   0  0  0  0  0  0  0  0  0  0  0  0
   -9.9689   -0.0197    0.0000 C   0  0  0  0  0  0  0  0  0  0  0  0
  -10.4538    0.6478    0.0000 O   0  0  0  0  0  0  0  0  0  0  0  0
   -9.1484    0.0665    0.0000 O   0  0  0  0  0  0  0  0  0  0  0  0
   -8.8128    0.8202    0.0000 C   0  0  2  0  0  0  0  0  0  0  0  0
   -9.2253    1.5347    0.0000 C   0  0  1  0  0  0  0  0  0  0  0  0
  -10.0458    1.6209    0.0000 O   0  0  0  0  0  0  0  0  0  0  0  0
   -8.6733    2.1478    0.0000 O   0  0  0  0  0  0  0  0  0  0  0  0
   -7.9196    1.8122    0.0000 C   0  0  2  0  0  0  0  0  0  0  0  0
   -7.2052    2.2247    0.0000 C   0  0  0  0  0  0  0  0  0  0  0  0
   -6.4907    1.8122    0.0000 O   0  0  0  0  0  0  0  0  0  0  0  0
   -5.7762    2.2247    0.0000 P   0  0  2  0  0  0  0  0  0  0  0  0
   -5.3637    1.5103    0.0000 O   0  0  0  0  0  0  0  0  0  0  0  0
   -6.1887    2.9392    0.0000 O   0  0  0  0  0  0  0  0  0  0  0  0
   -5.0617    2.6372    0.0000 O   0  0  0  0  0  0  0  0  0  0  0  0
   -4.3473    2.2247    0.0000 P   0  0  1  0  0  0  0  0  0  0  0  0
   -4.7598    1.5103    0.0000 O   0  0  0  0  0  0  0  0  0  0  0  0
   -3.9348    2.9392    0.0000 O   0  0  0  0  0  0  0  0  0  0  0  0
   -3.6328    1.8122    0.0000 O   0  0  0  0  0  0  0  0  0  0  0  0
   -2.9183    2.2247    0.0000 C   0  0  0  0  0  0  0  0  0  0  0  0
   -2.2039    1.8122    0.0000 C   0  0  2  0  0  0  0  0  0  0  0  0
   -1.4502    2.1478    0.0000 O   0  0  0  0  0  0  0  0  0  0  0  0
   -0.8981    1.5347    0.0000 C   0  0  2  0  0  0  0  0  0  0  0  0
   -1.3106    0.8202    0.0000 C   0  0  2  0  0  0  0  0  0  0  0  0
   -0.9751    0.0665    0.0000 O   0  0  0  0  0  0  0  0  0  0  0  0
   -2.1176    0.9917    0.0000 C   0  0  1  0  0  0  0  0  0  0  0  0
   -2.7307    0.4397    0.0000 O   0  0  0  0  0  0  0  0  0  0  0  0
   -0.0777    1.6209    0.0000 N   0  0  0  0  0  0  0  0  0  0  0  0
    0.4744    1.0078    0.0000 C   0  0  0  0  0  0  0  0  0  0  0  0
    1.2280    1.3434    0.0000 N   0  0  0  0  0  0  0  0  0  0  0  0
    1.1418    2.1639    0.0000 C   0  0  0  0  0  0  0  0  0  0  0  0
    0.3348    2.3354    0.0000 C   0  0  0  0  0  0  0  0  0  0  0  0
    0.0799    3.1200    0.0000 N   0  0  0  0  0  0  0  0  0  0  0  0
    0.6319    3.7331    0.0000 C   0  0  0  0  0  0  0  0  0  0  0  0
    1.4389    3.5616    0.0000 N   0  0  0  0  0  0  0  0  0  0  0  0
    1.6938    2.7770    0.0000 C   0  0  0  0  0  0  0  0  0  0  0  0
    2.5008    2.6054    0.0000 N   0  0  0  0  0  0  0  0  0  0  0  0
   -8.0059    0.9917    0.0000 C   0  0  1  0  0  0  0  0  0  0  0  0
   -7.3928    0.4397    0.0000 O   0  0  0  0  0  0  0  0  0  0  0  0
  1  2  1  0  0  0  0
  2  3  2  0  0  0  0
  2  4  1  0  0  0  0
  5  4  1  6  0  0  0
  5  6  1  0  0  0  0
  6  7  1  1  0  0  0
  6  8  1  0  0  0  0
  8  9  1  0  0  0  0
  9 10  1  6  0  0  0
 10 11  1  0  0  0  0
 12 11  1  6  0  0  0
 12 13  1  1  0  0  0
 12 14  2  0  0  0  0
 12 15  1  0  0  0  0
 16 15  1  1  0  0  0
 16 17  1  6  0  0  0
 16 18  2  0  0  0  0
 16 19  1  0  0  0  0
 19 20  1  0  0  0  0
 21 20  1  6  0  0  0
 21 22  1  0  0  0  0
 22 23  1  0  0  0  0
 23 24  1  0  0  0  0
 24 25  1  6  0  0  0
 24 26  1  0  0  0  0
 21 26  1  0  0  0  0
 26 27  1  1  0  0  0
 23 28  1  1  0  0  0
 28 29  1  0  0  0  0
 29 30  2  0  0  0  0
 30 31  1  0  0  0  0
 31 32  2  0  0  0  0
 28 32  1  0  0  0  0
 32 33  1  0  0  0  0
 33 34  2  0  0  0  0
 34 35  1  0  0  0  0
 35 36  2  0  0  0  0
 31 36  1  0  0  0  0
 36 37  1  0  0  0  0
  9 38  1  0  0  0  0
  5 38  1  0  0  0  0
 38 39  1  1  0  0  0
M  END
> <DRUGBANK_ID>
DB03478

> <DRUG_GROUPS>
experimental

> <GENERIC_NAME>
2'-O-Acetyl Adenosine-5-Diphosphoribose

> <CHEMICAL_FORMULA>
C17H25N5O15P2

> <MOLECULAR_WEIGHT>
601.3524

> <EXACT_MASS>
601.082238179

> <IUPAC_NAME>
{[(2R,3R,4S,5S)-4-(acetyloxy)-3,5-dihydroxyoxolan-2-yl]methoxy}[({[(2S,3R,4R,5R)-5-(6-amino-9H-purin-9-yl)-3,4-dihydroxyoxolan-2-yl]methoxy}(hydroxy)phosphoryl)oxy]phosphinic acid

> <IUPAC_TRADITIONAL_NAME>
[(2R,3R,4S,5S)-4-(acetyloxy)-3,5-dihydroxyoxolan-2-yl]methoxy({[(2S,3R,4R,5R)-5-(6-aminopurin-9-yl)-3,4-dihydroxyoxolan-2-yl]methoxy(hydroxy)phosphoryl}oxy)phosphinic acid

> <INCHI_IDENTIFIER>
InChI=1S/C17H25N5O15P2/c1-6(23)34-13-11(25)8(36-17(13)27)3-33-39(30,31)37-38(28,29)32-2-7-10(24)12(26)16(35-7)22-5-21-9-14(18)19-4-20-15(9)22/h4-5,7-8,10-13,16-17,24-27H,2-3H2,1H3,(H,28,29)(H,30,31)(H2,18,19,20)/t7-,8+,10-,11+,12+,13-,16+,17-/m0/s1

> <INCHI_KEY>
InChIKey=BFNOPXRXIQJDHO-BVNNLCGGSA-N

> <SMILES>
CC(=O)O[C@@H]1[C@@H](O)O[C@H](CO[P@](O)(=O)O[P@@](O)(=O)OC[C@@H]2O[C@H]([C@H](O)[C@H]2O)N2C=NC3=C2N=CN=C3N)[C@H]1O

> <JCHEM_ACCEPTOR_COUNT>
15

> <JCHEM_DONOR_COUNT>
7

> <JCHEM_ACIDIC_PKA>
1.86

> <JCHEM_BASIC_PKA>
5

> <JCHEM_PHYSIOLOGICAL_CHARGE>
-2

> <ALOGPS_LOGP>
-1.7

> <JCHEM_LOGP>
-6.2

> <ALOGPS_LOGS>
-2.2

> <JCHEM_POLARIZABILITY>
50.51

> <JCHEM_POLAR_SURFACE_AREA>
297.59

> <JCHEM_REFRACTIVITY>
120.27

> <JCHEM_ROTATABLE_BOND_COUNT>
11

> <ALOGPS_SOLUBILITY>
3.54e+00 g/l __ 

$$$$
