
  Mrv0541 02231217202D          

 10  9  0  0  1  0            999 V2000
    4.6184    2.6664    0.0000 N   0  0  0  0  0  0  0  0  0  0  0  0
    4.6184    1.8414    0.0000 C   0  0  1  0  0  0  0  0  0  0  0  0
    3.9039    1.4289    0.0000 C   0  0  0  0  0  0  0  0  0  0  0  0
    3.1895    1.8414    0.0000 C   0  0  0  0  0  0  0  0  0  0  0  0
    2.4750    1.4289    0.0000 C   0  0  0  0  0  0  0  0  0  0  0  0
    1.7605    1.8414    0.0000 C   0  0  0  0  0  0  0  0  0  0  0  0
    1.0461    1.4289    0.0000 N   0  3  0  0  0  0  0  0  0  0  0  0
    5.3329    1.4289    0.0000 C   0  0  0  0  0  0  0  0  0  0  0  0
    6.0474    1.8414    0.0000 N   0  0  0  0  0  0  0  0  0  0  0  0
    5.3329    0.6039    0.0000 O   0  0  0  0  0  0  0  0  0  0  0  0
  2  1  1  6  0  0  0
  2  3  1  0  0  0  0
  3  4  1  0  0  0  0
  4  5  1  0  0  0  0
  5  6  1  0  0  0  0
  6  7  1  0  0  0  0
  2  8  1  0  0  0  0
  8  9  1  0  0  0  0
  8 10  2  0  0  0  0
M  END
> <DRUGBANK_ID>
DB03988

> <DRUG_GROUPS>
experimental

> <GENERIC_NAME>
2,6-Diamino-Hexanoic Acid Amide

> <CHEMICAL_FORMULA>
C6H16N3O

> <MOLECULAR_WEIGHT>
146.2107

> <EXACT_MASS>
146.129337149

> <IUPAC_NAME>
(5S)-5-amino-5-carbamoylpentan-1-aminium

> <IUPAC_TRADITIONAL_NAME>
(5S)-5-amino-5-carbamoylpentan-1-aminium

> <INCHI_IDENTIFIER>
InChI=1S/C6H15N3O/c7-4-2-1-3-5(8)6(9)10/h5H,1-4,7-8H2,(H2,9,10)/p+1/t5-/m0/s1

> <INCHI_KEY>
InChIKey=HKXLAGBDJVHRQG-YFKPBYRVSA-O

> <SMILES>
N[C@@H](CCCC[NH3+])C(N)=O

> <JCHEM_ACCEPTOR_COUNT>
2

> <JCHEM_DONOR_COUNT>
3

> <JCHEM_ACIDIC_PKA>
16.63

> <JCHEM_BASIC_PKA>
10.21

> <JCHEM_PHYSIOLOGICAL_CHARGE>
2

> <ALOGPS_LOGP>
-2.6

> <JCHEM_LOGP>
-1.5

> <ALOGPS_LOGS>
-1.2

> <JCHEM_POLARIZABILITY>
16.72

> <JCHEM_POLAR_SURFACE_AREA>
96.75

> <JCHEM_REFRACTIVITY>
50.92

> <JCHEM_ROTATABLE_BOND_COUNT>
5

> <ALOGPS_SOLUBILITY>
1.04e+01 g/l __ 

$$$$
