
  Mrv0541 02231217102D          

 17 18  0  0  1  0            999 V2000
    0.1067    4.7652    0.0000 C   0  0  0  0  0  0  0  0  0  0  0  0
   -0.6078    4.3527    0.0000 N   0  0  0  0  0  0  0  0  0  0  0  0
   -0.6078    3.5277    0.0000 C   0  0  0  0  0  0  0  0  0  0  0  0
   -1.3222    3.1152    0.0000 C   0  0  0  0  0  0  0  0  0  0  0  0
   -1.3222    2.2902    0.0000 C   0  0  1  0  0  0  0  0  0  0  0  0
   -0.6548    1.8053    0.0000 C   0  0  0  0  0  0  0  0  0  0  0  0
   -0.9097    1.0206    0.0000 C   0  0  1  0  0  0  0  0  0  0  0  0
   -0.4248    0.3532    0.0000 O   0  0  0  0  0  0  0  0  0  0  0  0
   -1.7347    1.0206    0.0000 C   0  0  2  0  0  0  0  0  0  0  0  0
   -2.2197    0.3532    0.0000 C   0  0  0  0  0  0  0  0  0  0  0  0
   -1.8841   -0.4005    0.0000 O   0  0  0  0  0  0  0  0  0  0  0  0
   -1.9897    1.8053    0.0000 O   0  0  0  0  0  0  0  0  0  0  0  0
   -2.0367    3.5277    0.0000 C   0  0  0  0  0  0  0  0  0  0  0  0
   -2.7512    3.1152    0.0000 O   0  0  0  0  0  0  0  0  0  0  0  0
   -2.0367    4.3527    0.0000 N   0  0  0  0  0  0  0  0  0  0  0  0
   -1.3222    4.7652    0.0000 C   0  0  0  0  0  0  0  0  0  0  0  0
   -1.3222    5.5902    0.0000 O   0  0  0  0  0  0  0  0  0  0  0  0
  1  2  1  0  0  0  0
  2  3  1  0  0  0  0
  3  4  2  0  0  0  0
  5  4  1  1  0  0  0
  5  6  1  0  0  0  0
  6  7  1  0  0  0  0
  7  8  1  1  0  0  0
  7  9  1  0  0  0  0
  9 10  1  6  0  0  0
 10 11  1  0  0  0  0
  9 12  1  0  0  0  0
  5 12  1  0  0  0  0
  4 13  1  0  0  0  0
 13 14  2  0  0  0  0
 13 15  1  0  0  0  0
 15 16  1  0  0  0  0
  2 16  1  0  0  0  0
 16 17  2  0  0  0  0
M  END
> <DRUGBANK_ID>
DB03763

> <DRUG_GROUPS>
experimental

> <GENERIC_NAME>
5-Methyl-2'-Deoxypseudouridine

> <CHEMICAL_FORMULA>
C10H14N2O5

> <MOLECULAR_WEIGHT>
242.2286

> <EXACT_MASS>
242.090271568

> <IUPAC_NAME>
5-[(2R,4R,5S)-4-hydroxy-5-(hydroxymethyl)oxolan-2-yl]-1-methyl-1,2,3,4-tetrahydropyrimidine-2,4-dione

> <IUPAC_TRADITIONAL_NAME>
5-[(2R,4R,5S)-4-hydroxy-5-(hydroxymethyl)oxolan-2-yl]-1-methyl-3H-pyrimidine-2,4-dione

> <INCHI_IDENTIFIER>
InChI=1S/C10H14N2O5/c1-12-3-5(9(15)11-10(12)16)7-2-6(14)8(4-13)17-7/h3,6-8,13-14H,2,4H2,1H3,(H,11,15,16)/t6-,7-,8+/m1/s1

> <INCHI_KEY>
InChIKey=AMDJRICBYOAHBZ-PRJMDXOYSA-N

> <SMILES>
CN1C=C([C@H]2C[C@@H](O)[C@H](CO)O2)C(=O)NC1=O

> <JCHEM_ACCEPTOR_COUNT>
5

> <JCHEM_DONOR_COUNT>
3

> <JCHEM_ACIDIC_PKA>
9.65

> <JCHEM_BASIC_PKA>
-3

> <JCHEM_PHYSIOLOGICAL_CHARGE>
0

> <ALOGPS_LOGP>
-1.2

> <JCHEM_LOGP>
-2.2

> <ALOGPS_LOGS>
-0.55

> <JCHEM_POLARIZABILITY>
23.04

> <JCHEM_POLAR_SURFACE_AREA>
99.1

> <JCHEM_REFRACTIVITY>
56.24

> <JCHEM_ROTATABLE_BOND_COUNT>
2

> <ALOGPS_SOLUBILITY>
6.80e+01 g/l __ 

$$$$
