
  Mrv0541 02231216592D          

 21 23  0  0  1  0            999 V2000
   -0.3984    0.7541    0.0000 C   0  0  0  0  0  0  0  0  0  0  0  0
   -0.1435   -0.0305    0.0000 N   0  3  0  0  0  0  0  0  0  0  0  0
   -0.6284   -0.6979    0.0000 C   0  0  0  0  0  0  0  0  0  0  0  0
   -0.1435   -1.3654    0.0000 N   0  0  0  0  0  0  0  0  0  0  0  0
   -0.3984   -2.1500    0.0000 C   0  0  2  0  0  0  0  0  0  0  0  0
    0.0865   -2.8174    0.0000 O   0  0  0  0  0  0  0  0  0  0  0  0
   -0.3984   -3.4849    0.0000 C   0  0  1  0  0  0  0  0  0  0  0  0
   -0.1435   -4.2695    0.0000 C   0  0  0  0  0  0  0  0  0  0  0  0
   -0.6955   -4.8826    0.0000 O   0  0  0  0  0  0  0  0  0  0  0  0
   -1.1831   -3.2299    0.0000 C   0  0  2  0  0  0  0  0  0  0  0  0
   -1.8505   -3.7149    0.0000 O   0  0  0  0  0  0  0  0  0  0  0  0
   -1.1831   -2.4049    0.0000 C   0  0  1  0  0  0  0  0  0  0  0  0
   -1.8505   -1.9200    0.0000 O   0  0  0  0  0  0  0  0  0  0  0  0
    0.6411   -1.1104    0.0000 C   0  0  0  0  0  0  0  0  0  0  0  0
    0.6411   -0.2854    0.0000 C   0  0  0  0  0  0  0  0  0  0  0  0
    1.3556    0.1271    0.0000 C   0  0  0  0  0  0  0  0  0  0  0  0
    1.3556    0.9521    0.0000 O   0  0  0  0  0  0  0  0  0  0  0  0
    2.0701   -0.2854    0.0000 N   0  0  0  0  0  0  0  0  0  0  0  0
    2.0701   -1.1104    0.0000 C   0  0  0  0  0  0  0  0  0  0  0  0
    2.7845   -1.5229    0.0000 N   0  0  0  0  0  0  0  0  0  0  0  0
    1.3556   -1.5229    0.0000 N   0  0  0  0  0  0  0  0  0  0  0  0
  1  2  1  0  0  0  0
  2  3  2  0  0  0  0
  3  4  1  0  0  0  0
  5  4  1  6  0  0  0
  5  6  1  0  0  0  0
  6  7  1  0  0  0  0
  7  8  1  1  0  0  0
  8  9  1  0  0  0  0
  7 10  1  0  0  0  0
 10 11  1  6  0  0  0
 10 12  1  0  0  0  0
  5 12  1  0  0  0  0
 12 13  1  1  0  0  0
  4 14  1  0  0  0  0
 14 15  2  0  0  0  0
  2 15  1  0  0  0  0
 15 16  1  0  0  0  0
 16 17  2  0  0  0  0
 16 18  1  0  0  0  0
 18 19  1  0  0  0  0
 19 20  1  0  0  0  0
 19 21  2  0  0  0  0
 14 21  1  0  0  0  0
M  END
> <DRUGBANK_ID>
DB03493

> <DRUG_GROUPS>
experimental

> <GENERIC_NAME>
7-Methylguanosine

> <CHEMICAL_FORMULA>
C11H16N5O5

> <MOLECULAR_WEIGHT>
298.2752

> <EXACT_MASS>
298.115143647

> <IUPAC_NAME>
2-amino-9-[(2R,3R,4R,5S)-3,4-dihydroxy-5-(hydroxymethyl)oxolan-2-yl]-7-methyl-6-oxo-6,9-dihydro-1H-purin-7-ium

> <IUPAC_TRADITIONAL_NAME>
7-methylguanosine

> <INCHI_IDENTIFIER>
InChI=1S/C11H15N5O5/c1-15-3-16(8-5(15)9(20)14-11(12)13-8)10-7(19)6(18)4(2-17)21-10/h3-4,6-7,10,17-19H,2H2,1H3,(H2-,12,13,14,20)/p+1/t4-,6-,7+,10+/m0/s1

> <INCHI_KEY>
InChIKey=OGHAROSJZRTIOK-FCIPNVEPSA-O

> <SMILES>
C[N+]1=CN([C@@H]2O[C@@H](CO)[C@H](O)[C@H]2O)C2=C1C(=O)NC(N)=N2

> <JCHEM_ACCEPTOR_COUNT>
7

> <JCHEM_DONOR_COUNT>
5

> <JCHEM_ACIDIC_PKA>
8.76

> <JCHEM_BASIC_PKA>
3.3

> <JCHEM_PHYSIOLOGICAL_CHARGE>
1

> <ALOGPS_LOGP>
-2.8

> <JCHEM_LOGP>
-6.7

> <ALOGPS_LOGS>
-1.8

> <JCHEM_POLARIZABILITY>
28.49

> <JCHEM_POLAR_SURFACE_AREA>
146.21

> <JCHEM_REFRACTIVITY>
69.81

> <JCHEM_ROTATABLE_BOND_COUNT>
2

> <ALOGPS_SOLUBILITY>
5.62e+00 g/l __ 

$$$$
