DKA
  Mrv0541 02231217032D          

 12 11  0  0  0  0            999 V2000
   -3.2374   -0.1687    0.0000 C   0  0  0  0  0  0  0  0  0  0  0  0
   -3.9520    0.2438    0.0000 O   0  0  0  0  0  0  0  0  0  0  0  0
   -2.5230    0.2438    0.0000 C   0  0  0  0  0  0  0  0  0  0  0  0
   -1.8084   -0.1687    0.0000 C   0  0  0  0  0  0  0  0  0  0  0  0
   -1.0939    0.2438    0.0000 C   0  0  0  0  0  0  0  0  0  0  0  0
   -0.3794   -0.1687    0.0000 C   0  0  0  0  0  0  0  0  0  0  0  0
    0.3351    0.2438    0.0000 C   0  0  0  0  0  0  0  0  0  0  0  0
    1.0497   -0.1687    0.0000 C   0  0  0  0  0  0  0  0  0  0  0  0
    1.7641    0.2438    0.0000 C   0  0  0  0  0  0  0  0  0  0  0  0
    2.4787   -0.1687    0.0000 C   0  0  0  0  0  0  0  0  0  0  0  0
    3.1932    0.2438    0.0000 C   0  0  0  0  0  0  0  0  0  0  0  0
   -3.2374   -0.9938    0.0000 O   0  0  0  0  0  0  0  0  0  0  0  0
  1  2  2  0  0  0  0
  1  3  1  0  0  0  0
  1 12  1  0  0  0  0
  3  4  1  0  0  0  0
  4  5  1  0  0  0  0
  5  6  1  0  0  0  0
  6  7  1  0  0  0  0
  7  8  1  0  0  0  0
  8  9  1  0  0  0  0
  9 10  1  0  0  0  0
 10 11  1  0  0  0  0
M  END
> <DRUGBANK_ID>
DB03600

> <DRUG_GROUPS>
experimental

> <GENERIC_NAME>
Decanoic Acid

> <SYNONYMS>


> <CHEMICAL_FORMULA>
C10H20O2

> <MOLECULAR_WEIGHT>
172.2646

> <EXACT_MASS>
172.146329884

> <IUPAC_NAME>
decanoic acid

> <IUPAC_TRADITIONAL_NAME>
decanoic acid

> <INCHI_IDENTIFIER>
InChI=1S/C10H20O2/c1-2-3-4-5-6-7-8-9-10(11)12/h2-9H2,1H3,(H,11,12)

> <INCHI_KEY>
InChIKey=GHVNFZFCNZKVNT-UHFFFAOYSA-N

> <SMILES>
CCCCCCCCCC(O)=O

> <JCHEM_ACCEPTOR_COUNT>
2

> <JCHEM_DONOR_COUNT>
1

> <JCHEM_ACIDIC_PKA>
4.95

> <JCHEM_PHYSIOLOGICAL_CHARGE>
-1

> <ALOGPS_LOGP>
3.93

> <JCHEM_LOGP>
3.59

> <ALOGPS_LOGS>
-3.3

> <JCHEM_POLARIZABILITY>
21.61

> <JCHEM_POLAR_SURFACE_AREA>
37.3

> <JCHEM_REFRACTIVITY>
49.48

> <JCHEM_ROTATABLE_BOND_COUNT>
8

> <ALOGPS_SOLUBILITY>
9.46e-02 g/l __ 

$$$$
