PY1
  Mrv0541 02231217162D          

 21 24  0  0  0  0            999 V2000
    0.3783   -0.6196    0.0000 C   0  0  0  0  0  0  0  0  0  0  0  0
   -0.2892   -1.1045    0.0000 C   0  0  0  0  0  0  0  0  0  0  0  0
   -0.0342   -1.8891    0.0000 N   0  0  0  0  0  0  0  0  0  0  0  0
    0.7908   -1.8891    0.0000 N   0  0  0  0  0  0  0  0  0  0  0  0
    1.0457   -1.1045    0.0000 C   0  0  0  0  0  0  0  0  0  0  0  0
    0.3783    0.2054    0.0000 C   0  0  0  0  0  0  0  0  0  0  0  0
   -1.0738   -0.8496    0.0000 C   0  0  0  0  0  0  0  0  0  0  0  0
   -1.2453   -0.0426    0.0000 N   0  0  0  0  0  0  0  0  0  0  0  0
   -2.0300    0.2124    0.0000 C   0  0  0  0  0  0  0  0  0  0  0  0
   -2.6430   -0.3397    0.0000 C   0  0  0  0  0  0  0  0  0  0  0  0
   -2.4715   -1.1466    0.0000 C   0  0  0  0  0  0  0  0  0  0  0  0
   -1.6869   -1.4016    0.0000 C   0  0  0  0  0  0  0  0  0  0  0  0
    1.0927    0.6179    0.0000 C   0  0  0  0  0  0  0  0  0  0  0  0
    1.0927    1.4429    0.0000 C   0  0  0  0  0  0  0  0  0  0  0  0
    0.3783    1.8554    0.0000 N   0  0  0  0  0  0  0  0  0  0  0  0
   -0.3362    1.4429    0.0000 C   0  0  0  0  0  0  0  0  0  0  0  0
   -0.3362    0.6179    0.0000 C   0  0  0  0  0  0  0  0  0  0  0  0
    1.8072    0.2054    0.0000 C   0  0  0  0  0  0  0  0  0  0  0  0
    2.5217    0.6179    0.0000 C   0  0  0  0  0  0  0  0  0  0  0  0
    2.5217    1.4429    0.0000 C   0  0  0  0  0  0  0  0  0  0  0  0
    1.8072    1.8554    0.0000 C   0  0  0  0  0  0  0  0  0  0  0  0
  1  2  1  0  0  0  0
  1  5  2  0  0  0  0
  1  6  1  0  0  0  0
  2  3  2  0  0  0  0
  2  7  1  0  0  0  0
  3  4  1  0  0  0  0
  4  5  1  0  0  0  0
  6 13  2  0  0  0  0
  6 17  1  0  0  0  0
  7  8  2  0  0  0  0
  7 12  1  0  0  0  0
  8  9  1  0  0  0  0
  9 10  2  0  0  0  0
 10 11  1  0  0  0  0
 11 12  2  0  0  0  0
 13 14  1  0  0  0  0
 13 18  1  0  0  0  0
 14 15  2  0  0  0  0
 14 21  1  0  0  0  0
 15 16  1  0  0  0  0
 16 17  2  0  0  0  0
 18 19  2  0  0  0  0
 19 20  1  0  0  0  0
 20 21  2  0  0  0  0
M  END
> <DRUGBANK_ID>
DB03921

> <DRUG_GROUPS>
experimental

> <GENERIC_NAME>
4-(3-Pyridin-2-Yl-1h-Pyrazol-4-Yl)Quinoline

> <CHEMICAL_FORMULA>
C17H12N4

> <MOLECULAR_WEIGHT>
272.304

> <EXACT_MASS>
272.106196404

> <IUPAC_NAME>
4-[3-(pyridin-2-yl)-1H-pyrazol-4-yl]quinoline

> <IUPAC_TRADITIONAL_NAME>
4-[3-(pyridin-2-yl)-1H-pyrazol-4-yl]quinoline

> <INCHI_IDENTIFIER>
InChI=1S/C17H12N4/c1-2-6-15-13(5-1)12(8-10-19-15)14-11-20-21-17(14)16-7-3-4-9-18-16/h1-11H,(H,20,21)

> <INCHI_KEY>
InChIKey=IBCXZJCWDGCXQT-UHFFFAOYSA-N

> <SMILES>
N1C=C(C(=N1)C1=NC=CC=C1)C1=C2C=CC=CC2=NC=C1

> <JCHEM_ACCEPTOR_COUNT>
3

> <JCHEM_DONOR_COUNT>
1

> <JCHEM_ACIDIC_PKA>
14.33

> <JCHEM_BASIC_PKA>
3.71

> <JCHEM_PHYSIOLOGICAL_CHARGE>
0

> <ALOGPS_LOGP>
3.38

> <JCHEM_LOGP>
3.28

> <ALOGPS_LOGS>
-4

> <JCHEM_POLARIZABILITY>
28.69

> <JCHEM_POLAR_SURFACE_AREA>
54.46

> <JCHEM_REFRACTIVITY>
81.04

> <JCHEM_ROTATABLE_BOND_COUNT>
2

> <ALOGPS_SOLUBILITY>
2.73e-02 g/l __ 

$$$$
