L47
  Mrv0541 02231217202D          

 23 25  0  0  0  0            999 V2000
    3.2914   -0.3219    0.0000 C    0  0  0  0  0  0  0  0  0  0  0  0
    2.5068   -0.5769    0.0000 C    0  0  0  0  0  0  0  0  0  0  0  0
    1.8937   -0.0249    0.0000 C    0  0  0  0  0  0  0  0  0  0  0  0
    2.0652    0.7821    0.0000 C    0  0  0  0  0  0  0  0  0  0  0  0
    2.8498    1.0371    0.0000 C    0  0  0  0  0  0  0  0  0  0  0  0
    3.4629    0.4850    0.0000 C    0  0  0  0  0  0  0  0  0  0  0  0
    1.1090   -0.2798    0.0000 C    0  0  0  0  0  0  0  0  0  0  0  0
    0.8541   -1.0644    0.0000 N    0  0  0  0  0  0  0  0  0  0  0  0
    0.0291   -1.0644    0.0000 N    0  0  0  0  0  0  0  0  0  0  0  0
   -0.2258   -0.2798    0.0000 C    0  0  1  0  0  0  0  0  0  0  0  0
    0.4416    0.2051    0.0000 C    0  0  0  0  0  0  0  0  0  0  0  0
   -1.0105   -0.0249    0.0000 C    0  0  0  0  0  0  0  0  0  0  0  0
   -0.4558   -1.7319    0.0000 C    0  0  0  0  0  0  0  0  0  0  0  0
   -1.2763   -1.6456    0.0000 C    0  0  0  0  0  0  0  0  0  0  0  0
   -0.1203   -2.4855    0.0000 O    0  0  0  0  0  0  0  0  0  0  0  0
   -1.6236   -0.5769    0.0000 C    0  0  0  0  0  0  0  0  0  0  0  0
   -2.4082   -0.3219    0.0000 C    0  0  0  0  0  0  0  0  0  0  0  0
   -2.5797    0.4850    0.0000 C    0  0  0  0  0  0  0  0  0  0  0  0
   -1.9666    1.0371    0.0000 C    0  0  0  0  0  0  0  0  0  0  0  0
   -1.1820    0.7821    0.0000 C    0  0  0  0  0  0  0  0  0  0  0  0
    1.4521    1.3342    0.0000 Cl   0  0  0  0  0  0  0  0  0  0  0  0
   -2.1381    1.8440    0.0000 O    0  0  0  0  0  0  0  0  0  0  0  0
   -0.6387   -0.6927    0.0000 H    0  0  0  0  0  0  0  0  0  0  0  0
  1  2  2  0  0  0  0
  1  6  1  0  0  0  0
  2  3  1  0  0  0  0
  3  4  2  0  0  0  0
  3  7  1  0  0  0  0
  4  5  1  0  0  0  0
  4 21  1  0  0  0  0
  5  6  2  0  0  0  0
  7  8  2  0  0  0  0
  7 11  1  0  0  0  0
  8  9  1  0  0  0  0
  9 10  1  0  0  0  0
  9 13  1  0  0  0  0
 10 11  1  0  0  0  0
 10 12  1  6  0  0  0
 10 23  1  1  0  0  0
 12 16  2  0  0  0  0
 12 20  1  0  0  0  0
 13 14  1  0  0  0  0
 13 15  2  0  0  0  0
 16 17  1  0  0  0  0
 17 18  2  0  0  0  0
 18 19  1  0  0  0  0
 19 20  2  0  0  0  0
 19 22  1  0  0  0  0
M  END
> <DRUGBANK_ID>
DB03996

> <DRUG_GROUPS>
experimental

> <GENERIC_NAME>
3-[(5s)-1-Acetyl-3-(2-Chlorophenyl)-4,5-Dihydro-1h-Pyrazol-5-Yl]Phenol

> <CHEMICAL_FORMULA>
C17H15ClN2O2

> <MOLECULAR_WEIGHT>
314.766

> <EXACT_MASS>
314.082205441

> <IUPAC_NAME>
1-[(5S)-3-(2-chlorophenyl)-5-(3-hydroxyphenyl)-4,5-dihydro-1H-pyrazol-1-yl]ethan-1-one

> <IUPAC_TRADITIONAL_NAME>
1-[(5S)-3-(2-chlorophenyl)-5-(3-hydroxyphenyl)-4,5-dihydropyrazol-1-yl]ethanone

> <INCHI_IDENTIFIER>
InChI=1S/C17H15ClN2O2/c1-11(21)20-17(12-5-4-6-13(22)9-12)10-16(19-20)14-7-2-3-8-15(14)18/h2-9,17,22H,10H2,1H3/t17-/m0/s1

> <INCHI_KEY>
InChIKey=QBZAPFWYAPXRGQ-KRWDZBQOSA-N

> <SMILES>
[H][C@]1(CC(=NN1C(C)=O)C1=C(Cl)C=CC=C1)C1=CC=CC(O)=C1

> <JCHEM_ACCEPTOR_COUNT>
3

> <JCHEM_DONOR_COUNT>
1

> <JCHEM_ACIDIC_PKA>
9.4

> <JCHEM_BASIC_PKA>
0.35

> <JCHEM_PHYSIOLOGICAL_CHARGE>
0

> <ALOGPS_LOGP>
3.19

> <JCHEM_LOGP>
3.2

> <ALOGPS_LOGS>
-4

> <JCHEM_POLARIZABILITY>
32.24

> <JCHEM_POLAR_SURFACE_AREA>
52.9

> <JCHEM_REFRACTIVITY>
85.49

> <JCHEM_ROTATABLE_BOND_COUNT>
2

> <ALOGPS_SOLUBILITY>
3.22e-02 g/l __ 

$$$$
