
  Mrv0541 02231216372D          

 21 21  0  0  1  0            999 V2000
   -4.8476    5.3968    0.0000 C   0  0  0  0  0  0  0  0  0  0  0  0
   -4.6761    4.5898    0.0000 C   0  0  0  0  0  0  0  0  0  0  0  0
   -3.8915    4.3348    0.0000 C   0  0  0  0  0  0  0  0  0  0  0  0
   -3.7200    3.5279    0.0000 C   0  0  0  0  0  0  0  0  0  0  0  0
   -2.9353    3.2729    0.0000 C   0  0  0  0  0  0  0  0  0  0  0  0
   -2.7638    2.4660    0.0000 C   0  0  1  0  0  0  0  0  0  0  0  0
   -2.0101    2.1304    0.0000 C   0  0  2  0  0  0  0  0  0  0  0  0
   -1.2957    2.5429    0.0000 C   0  0  0  0  0  0  0  0  0  0  0  0
   -0.5812    2.1304    0.0000 C   0  0  0  0  0  0  0  0  0  0  0  0
    0.1333    2.5429    0.0000 C   0  0  0  0  0  0  0  0  0  0  0  0
    0.8477    2.1304    0.0000 C   0  0  0  0  0  0  0  0  0  0  0  0
    1.5622    2.5429    0.0000 C   0  0  0  0  0  0  0  0  0  0  0  0
    2.2767    2.1304    0.0000 C   0  0  0  0  0  0  0  0  0  0  0  0
    2.9912    2.5429    0.0000 C   0  0  0  0  0  0  0  0  0  0  0  0
    3.7056    2.1304    0.0000 C   0  0  0  0  0  0  0  0  0  0  0  0
    4.4201    2.5429    0.0000 O   0  0  0  0  0  0  0  0  0  0  0  0
    3.7056    1.3054    0.0000 O   0  0  0  0  0  0  0  0  0  0  0  0
   -2.0964    1.3099    0.0000 C   0  0  0  0  0  0  0  0  0  0  0  0
   -2.9034    1.1384    0.0000 C   0  0  0  0  0  0  0  0  0  0  0  0
   -3.3159    1.8529    0.0000 C   0  0  0  0  0  0  0  0  0  0  0  0
   -4.1363    1.9391    0.0000 O   0  0  0  0  0  0  0  0  0  0  0  0
  1  2  1  0  0  0  0
  2  3  1  0  0  0  0
  3  4  2  0  0  0  0
  4  5  1  0  0  0  0
  6  5  1  1  0  0  0
  6  7  1  0  0  0  0
  7  8  1  6  0  0  0
  8  9  1  0  0  0  0
  9 10  1  0  0  0  0
 10 11  1  0  0  0  0
 11 12  1  0  0  0  0
 12 13  1  0  0  0  0
 13 14  1  0  0  0  0
 14 15  1  0  0  0  0
 15 16  1  0  0  0  0
 15 17  2  0  0  0  0
  7 18  1  0  0  0  0
 18 19  2  0  0  0  0
 19 20  1  0  0  0  0
  6 20  1  0  0  0  0
 20 21  2  0  0  0  0
M  END
> <DRUGBANK_ID>
DB03007

> <DRUG_GROUPS>
experimental

> <GENERIC_NAME>
9r,13r-Opda

> <CHEMICAL_FORMULA>
C18H28O3

> <MOLECULAR_WEIGHT>
292.4131

> <EXACT_MASS>
292.203844762

> <IUPAC_NAME>
8-[(1R,5S)-4-oxo-5-[(2E)-pent-2-en-1-yl]cyclopent-2-en-1-yl]octanoic acid

> <IUPAC_TRADITIONAL_NAME>
9r,13r-opda

> <INCHI_IDENTIFIER>
InChI=1S/C18H28O3/c1-2-3-7-11-16-15(13-14-17(16)19)10-8-5-4-6-9-12-18(20)21/h3,7,13-16H,2,4-6,8-12H2,1H3,(H,20,21)/b7-3+/t15-,16+/m1/s1

> <INCHI_KEY>
InChIKey=PMTMAFAPLCGXGK-JLSIVADVSA-N

> <SMILES>
CC\C=C\C[C@H]1[C@H](CCCCCCCC(O)=O)C=CC1=O

> <JCHEM_ACCEPTOR_COUNT>
3

> <JCHEM_DONOR_COUNT>
1

> <JCHEM_ACIDIC_PKA>
4.78

> <JCHEM_BASIC_PKA>
-4.9

> <JCHEM_PHYSIOLOGICAL_CHARGE>
-1

> <ALOGPS_LOGP>
5.09

> <JCHEM_LOGP>
5.08

> <ALOGPS_LOGS>
-5

> <JCHEM_POLARIZABILITY>
35.38

> <JCHEM_POLAR_SURFACE_AREA>
54.37

> <JCHEM_REFRACTIVITY>
87.26

> <JCHEM_ROTATABLE_BOND_COUNT>
11

> <ALOGPS_SOLUBILITY>
3.22e-03 g/l __ 

$$$$
