
  Mrv0541 02231217092D          

 13 12  0  0  1  0            999 V2000
    1.0461    1.4289    0.0000 O   0  0  0  0  0  0  0  0  0  0  0  0
    1.7605    1.8414    0.0000 N   0  0  0  0  0  0  0  0  0  0  0  0
    2.4750    1.4289    0.0000 C   0  0  0  0  0  0  0  0  0  0  0  0
    2.4750    0.6039    0.0000 O   0  0  0  0  0  0  0  0  0  0  0  0
    3.1895    1.8414    0.0000 C   0  0  2  0  0  0  0  0  0  0  0  0
    3.1895    2.6664    0.0000 O   0  0  0  0  0  0  0  0  0  0  0  0
    3.9039    1.4289    0.0000 C   0  0  1  0  0  0  0  0  0  0  0  0
    3.9039    0.6039    0.0000 O   0  0  0  0  0  0  0  0  0  0  0  0
    4.6184    1.8414    0.0000 C   0  0  1  0  0  0  0  0  0  0  0  0
    4.6184    2.6664    0.0000 O   0  0  0  0  0  0  0  0  0  0  0  0
    5.3329    1.4289    0.0000 C   0  0  0  0  0  0  0  0  0  0  0  0
    6.0474    1.8414    0.0000 O   0  5  0  0  0  0  0  0  0  0  0  0
    5.3329    0.6039    0.0000 O   0  0  0  0  0  0  0  0  0  0  0  0
  1  2  1  0  0  0  0
  2  3  1  0  0  0  0
  3  4  2  0  0  0  0
  3  5  1  0  0  0  0
  5  6  1  6  0  0  0
  5  7  1  0  0  0  0
  7  8  1  6  0  0  0
  7  9  1  0  0  0  0
  9 10  1  1  0  0  0
  9 11  1  0  0  0  0
 11 12  1  0  0  0  0
 11 13  2  0  0  0  0
M  END
> <DRUGBANK_ID>
DB03734

> <DRUG_GROUPS>
experimental

> <GENERIC_NAME>
Xylarohydroxamate

> <CHEMICAL_FORMULA>
C5H8NO7

> <MOLECULAR_WEIGHT>
194.1195

> <EXACT_MASS>
194.030076615

> <IUPAC_NAME>
(2R,3R,4R)-2,3,4-trihydroxy-4-(hydroxycarbamoyl)butanoate

> <IUPAC_TRADITIONAL_NAME>
xylarohydroxamate

> <INCHI_IDENTIFIER>
InChI=1S/C5H9NO7/c7-1(3(9)5(11)12)2(8)4(10)6-13/h1-3,7-9,13H,(H,6,10)(H,11,12)/p-1/t1-,2-,3-/m1/s1

> <INCHI_KEY>
InChIKey=DMGBHBFPSRKPBV-ADNNCPOWSA-M

> <SMILES>
ONC(=O)[C@H](O)[C@@H](O)[C@@H](O)C([O-])=O

> <JCHEM_ACCEPTOR_COUNT>
7

> <JCHEM_DONOR_COUNT>
5

> <JCHEM_ACIDIC_PKA>
3.17

> <JCHEM_BASIC_PKA>
-3.8

> <JCHEM_PHYSIOLOGICAL_CHARGE>
-1

> <ALOGPS_LOGP>
-2.3

> <JCHEM_LOGP>
-3.3

> <ALOGPS_LOGS>
-0.23

> <JCHEM_POLARIZABILITY>
15.38

> <JCHEM_POLAR_SURFACE_AREA>
150.15

> <JCHEM_REFRACTIVITY>
46.6

> <JCHEM_ROTATABLE_BOND_COUNT>
4

> <ALOGPS_SOLUBILITY>
1.25e+02 g/l __ 

$$$$
