
  Mrv0541 02231216482D          

 56 58  0  0  1  0            999 V2000
    1.5134    0.0151    0.0000 C   0  0  0  0  0  0  0  0  0  0  0  0
    1.8879    0.7502    0.0000 C   0  0  0  0  0  0  0  0  0  0  0  0
    2.2624    1.4853    0.0000 C   0  0  0  0  0  0  0  0  0  0  0  0
    1.1528    1.1247    0.0000 C   0  0  0  0  0  0  0  0  0  0  0  0
    0.4609    0.6753    0.0000 O   0  0  0  0  0  0  0  0  0  0  0  0
   -0.2742    1.0498    0.0000 P   0  0  2  0  0  0  0  0  0  0  0  0
   -0.6487    0.3147    0.0000 O   0  0  0  0  0  0  0  0  0  0  0  0
    0.1003    1.7849    0.0000 O   0  0  0  0  0  0  0  0  0  0  0  0
   -1.0093    1.4243    0.0000 O   0  0  0  0  0  0  0  0  0  0  0  0
   -1.7012    0.9749    0.0000 P   0  0  1  0  0  0  0  0  0  0  0  0
   -1.2518    0.2831    0.0000 O   0  0  0  0  0  0  0  0  0  0  0  0
   -2.1505    1.6668    0.0000 O   0  0  0  0  0  0  0  0  0  0  0  0
   -2.3930    0.5255    0.0000 O   0  0  0  0  0  0  0  0  0  0  0  0
   -3.1281    0.9000    0.0000 C   0  0  0  0  0  0  0  0  0  0  0  0
   -3.8200    0.4506    0.0000 C   0  0  2  0  0  0  0  0  0  0  0  0
   -3.8631   -0.3732    0.0000 O   0  0  0  0  0  0  0  0  0  0  0  0
   -4.6600   -0.5868    0.0000 C   0  0  2  0  0  0  0  0  0  0  0  0
   -5.1094    0.1051    0.0000 C   0  0  2  0  0  0  0  0  0  0  0  0
   -5.9332    0.1482    0.0000 O   0  0  0  0  0  0  0  0  0  0  0  0
   -4.5902    0.7462    0.0000 C   0  0  1  0  0  0  0  0  0  0  0  0
   -4.8038    1.5431    0.0000 O   0  0  0  0  0  0  0  0  0  0  0  0
   -4.2205    2.1265    0.0000 P   0  0  0  0  0  0  0  0  0  0  0  0
   -3.6371    1.5432    0.0000 O   0  0  0  0  0  0  0  0  0  0  0  0
   -4.8039    2.7098    0.0000 O   0  0  0  0  0  0  0  0  0  0  0  0
   -3.6372    2.7099    0.0000 O   0  0  0  0  0  0  0  0  0  0  0  0
   -4.9556   -1.3570    0.0000 N   0  0  0  0  0  0  0  0  0  0  0  0
   -5.7525   -1.5706    0.0000 C   0  0  0  0  0  0  0  0  0  0  0  0
   -5.7956   -2.3945    0.0000 N   0  0  0  0  0  0  0  0  0  0  0  0
   -5.0253   -2.6901    0.0000 C   0  0  0  0  0  0  0  0  0  0  0  0
   -4.5062   -2.0489    0.0000 C   0  0  0  0  0  0  0  0  0  0  0  0
   -3.6913   -2.1779    0.0000 N   0  0  0  0  0  0  0  0  0  0  0  0
   -3.3956   -2.9481    0.0000 C   0  0  0  0  0  0  0  0  0  0  0  0
   -3.9148   -3.5893    0.0000 N   0  0  0  0  0  0  0  0  0  0  0  0
   -4.7296   -3.4603    0.0000 C   0  0  0  0  0  0  0  0  0  0  0  0
   -5.2488   -4.1015    0.0000 N   0  0  0  0  0  0  0  0  0  0  0  0
    2.6230    0.3757    0.0000 C   0  0  1  0  0  0  0  0  0  0  0  0
    2.6663   -0.4481    0.0000 O   0  0  0  0  0  0  0  0  0  0  0  0
    3.3149    0.8251    0.0000 C   0  0  0  0  0  0  0  0  0  0  0  0
    3.2716    1.6490    0.0000 O   0  0  0  0  0  0  0  0  0  0  0  0
    4.0500    0.4506    0.0000 N   0  0  0  0  0  0  0  0  0  0  0  0
    4.7419    0.9000    0.0000 C   0  0  0  0  0  0  0  0  0  0  0  0
    5.4770    0.5255    0.0000 C   0  0  0  0  0  0  0  0  0  0  0  0
    6.1688    0.9749    0.0000 C   0  0  0  0  0  0  0  0  0  0  0  0
    6.1256    1.7988    0.0000 O   0  0  0  0  0  0  0  0  0  0  0  0
    6.9039    0.6004    0.0000 N   0  0  0  0  0  0  0  0  0  0  0  0
    7.5958    1.0498    0.0000 C   0  0  0  0  0  0  0  0  0  0  0  0
    8.3309    0.6753    0.0000 C   0  0  0  0  0  0  0  0  0  0  0  0
    9.0228    1.1247    0.0000 S   0  0  0  0  0  0  0  0  0  0  0  0
    9.7579    0.7502    0.0000 C   0  0  0  0  0  0  0  0  0  0  0  0
    9.8011   -0.0736    0.0000 O   0  0  0  0  0  0  0  0  0  0  0  0
   10.4498    1.1996    0.0000 C   0  0  0  0  0  0  0  0  0  0  0  0
   11.1849    0.8251    0.0000 C   0  0  0  0  0  0  0  0  0  0  0  0
   11.8767    1.2745    0.0000 C   0  0  0  0  0  0  0  0  0  0  0  0
   12.6119    0.9000    0.0000 N   0  0  0  0  0  0  0  0  0  0  0  0
   13.3037    1.3494    0.0000 O   0  0  0  0  0  0  0  0  0  0  0  0
   12.6551    0.0762    0.0000 O   0  0  0  0  0  0  0  0  0  0  0  0
  1  2  1  0  0  0  0
  2  3  1  0  0  0  0
  2  4  1  0  0  0  0
  4  5  1  0  0  0  0
  6  5  1  1  0  0  0
  6  7  1  6  0  0  0
  6  8  2  0  0  0  0
  6  9  1  0  0  0  0
 10  9  1  6  0  0  0
 10 11  1  1  0  0  0
 10 12  2  0  0  0  0
 10 13  1  0  0  0  0
 13 14  1  0  0  0  0
 15 14  1  6  0  0  0
 15 16  1  0  0  0  0
 16 17  1  0  0  0  0
 17 18  1  0  0  0  0
 18 19  1  6  0  0  0
 18 20  1  0  0  0  0
 15 20  1  0  0  0  0
 20 21  1  1  0  0  0
 21 22  1  0  0  0  0
 22 23  1  0  0  0  0
 22 24  1  0  0  0  0
 22 25  2  0  0  0  0
 17 26  1  1  0  0  0
 26 27  1  0  0  0  0
 27 28  2  0  0  0  0
 28 29  1  0  0  0  0
 29 30  2  0  0  0  0
 26 30  1  0  0  0  0
 30 31  1  0  0  0  0
 31 32  2  0  0  0  0
 32 33  1  0  0  0  0
 33 34  2  0  0  0  0
 29 34  1  0  0  0  0
 34 35  1  0  0  0  0
  2 36  1  0  0  0  0
 36 37  1  6  0  0  0
 36 38  1  0  0  0  0
 38 39  2  0  0  0  0
 38 40  1  0  0  0  0
 40 41  1  0  0  0  0
 41 42  1  0  0  0  0
 42 43  1  0  0  0  0
 43 44  2  0  0  0  0
 43 45  1  0  0  0  0
 45 46  1  0  0  0  0
 46 47  1  0  0  0  0
 47 48  1  0  0  0  0
 48 49  1  0  0  0  0
 49 50  2  0  0  0  0
 49 51  1  0  0  0  0
 51 52  1  0  0  0  0
 52 53  1  0  0  0  0
 53 54  1  0  0  0  0
 54 55  1  0  0  0  0
 54 56  2  0  0  0  0
M  END
> <DRUGBANK_ID>
DB03245

> <DRUG_GROUPS>
experimental

> <GENERIC_NAME>
S-4-Nitrobutyryl-Coa

> <CHEMICAL_FORMULA>
C25H42N8O19P3S

> <MOLECULAR_WEIGHT>
883.629

> <EXACT_MASS>
883.149976428

> <IUPAC_NAME>
{4-[(2-{3-[(2R)-3-[({[({[(2S,3R,4R,5R)-5-(6-amino-9H-purin-9-yl)-4-hydroxy-3-(phosphonooxy)oxolan-2-yl]methoxy}(hydroxy)phosphoryl)oxy](hydroxy)phosphoryl}oxy)methyl]-2-hydroxy-3-methylbutanamido]propanamido}ethyl)sulfanyl]-4-oxobutyl}(hydroxy)nitroso

> <IUPAC_TRADITIONAL_NAME>
4-[(2-{3-[(2R)-3-{[({[(2S,3R,4R,5R)-5-(6-aminopurin-9-yl)-4-hydroxy-3-(phosphonooxy)oxolan-2-yl]methoxy(hydroxy)phosphoryl}oxy(hydroxy)phosphoryl)oxy]methyl}-2-hydroxy-3-methylbutanamido]propanamido}ethyl)sulfanyl]-4-oxobutyl(hydroxy)nitroso

> <INCHI_IDENTIFIER>
InChI=1S/C25H42N8O19P3S/c1-25(2,20(37)23(38)28-6-5-15(34)27-7-9-56-16(35)4-3-8-33(39)40)11-49-55(46,47)52-54(44,45)48-10-14-19(51-53(41,42)43)18(36)24(50-14)32-13-31-17-21(26)29-12-30-22(17)32/h12-14,18-20,24,36-37H,3-11H2,1-2H3,(H,27,34)(H,28,38)(H,39,40)(H,44,45)(H,46,47)(H2,26,29,30)(H2,41,42,43)/t14-,18+,19-,20-,24+/m0/s1

> <INCHI_KEY>
InChIKey=LXDJZADOCCLHJS-NEQUNHHKSA-N

> <SMILES>
CC(C)(CO[P@](O)(=O)O[P@@](O)(=O)OC[C@@H]1O[C@H]([C@H](O)[C@H]1OP(O)(O)=O)N1C=NC2=C1N=CN=C2N)[C@@H](O)C(=O)NCCC(=O)NCCSC(=O)CCC[N](O)=O

> <JCHEM_ACCEPTOR_COUNT>
0

> <JCHEM_DONOR_COUNT>
0

> <JCHEM_ACIDIC_PKA>
0.82

> <JCHEM_BASIC_PKA>
4.96

> <JCHEM_PHYSIOLOGICAL_CHARGE>
-5

> <ALOGPS_LOGP>
1.84

> <ALOGPS_LOGS>
-2.4

> <JCHEM_POLARIZABILITY>
78.16

> <JCHEM_POLAR_SURFACE_AREA>
420.14

> <JCHEM_REFRACTIVITY>
187.81

> <JCHEM_ROTATABLE_BOND_COUNT>
24

> <ALOGPS_SOLUBILITY>
3.64e+00 g/l __ 

$$$$
