DQU
  Mrv0541 02231216592D          

 13 14  0  0  0  0            999 V2000
   -1.1686   -0.2277    0.0000 C   0  0  0  0  0  0  0  0  0  0  0  0
   -1.8831   -0.6402    0.0000 N   0  0  0  0  0  0  0  0  0  0  0  0
   -1.1686    0.5973    0.0000 C   0  0  0  0  0  0  0  0  0  0  0  0
   -0.4541    1.0098    0.0000 C   0  0  0  0  0  0  0  0  0  0  0  0
    0.2603    0.5973    0.0000 C   0  0  0  0  0  0  0  0  0  0  0  0
    0.9748    1.0098    0.0000 N   0  0  0  0  0  0  0  0  0  0  0  0
    1.6893    0.5973    0.0000 C   0  0  0  0  0  0  0  0  0  0  0  0
    2.4037    1.0098    0.0000 N   0  0  0  0  0  0  0  0  0  0  0  0
    1.6893   -0.2277    0.0000 N   0  0  0  0  0  0  0  0  0  0  0  0
    0.9748   -0.6402    0.0000 C   0  0  0  0  0  0  0  0  0  0  0  0
    0.9748   -1.4652    0.0000 O   0  0  0  0  0  0  0  0  0  0  0  0
    0.2603   -0.2277    0.0000 C   0  0  0  0  0  0  0  0  0  0  0  0
   -0.4541   -0.6402    0.0000 C   0  0  0  0  0  0  0  0  0  0  0  0
  1  2  1  0  0  0  0
  1  3  1  0  0  0  0
  1 13  2  0  0  0  0
  3  4  2  0  0  0  0
  4  5  1  0  0  0  0
  5  6  1  0  0  0  0
  5 12  2  0  0  0  0
  6  7  2  0  0  0  0
  7  8  1  0  0  0  0
  7  9  1  0  0  0  0
  9 10  2  0  0  0  0
 10 11  1  0  0  0  0
 10 12  1  0  0  0  0
 12 13  1  0  0  0  0
M  END
> <DRUGBANK_ID>
DB03505

> <DRUG_GROUPS>
experimental

> <GENERIC_NAME>
2,6-Diaminoquinazolin-4(3h)-One

> <CHEMICAL_FORMULA>
C8H8N4O

> <MOLECULAR_WEIGHT>
176.1753

> <EXACT_MASS>
176.069810898

> <IUPAC_NAME>
2,6-diaminoquinazolin-4-ol

> <IUPAC_TRADITIONAL_NAME>
2,6-diaminoquinazolin-4-ol

> <INCHI_IDENTIFIER>
InChI=1S/C8H8N4O/c9-4-1-2-6-5(3-4)7(13)12-8(10)11-6/h1-3H,9H2,(H3,10,11,12,13)

> <INCHI_KEY>
InChIKey=YCRCNZBZUQLULA-UHFFFAOYSA-N

> <SMILES>
NC1=CC2=C(C=C1)N=C(N)N=C2O

> <JCHEM_ACCEPTOR_COUNT>
5

> <JCHEM_DONOR_COUNT>
3

> <JCHEM_ACIDIC_PKA>
13.35

> <JCHEM_BASIC_PKA>
2.86

> <JCHEM_PHYSIOLOGICAL_CHARGE>
0

> <ALOGPS_LOGP>
0

> <JCHEM_LOGP>
0.74

> <ALOGPS_LOGS>
-1.1

> <JCHEM_POLARIZABILITY>
17.26

> <JCHEM_POLAR_SURFACE_AREA>
98.05

> <JCHEM_REFRACTIVITY>
50.44

> <JCHEM_ROTATABLE_BOND_COUNT>
0

> <ALOGPS_SOLUBILITY>
1.45e+01 g/l __ 

$$$$
