
  Mrv0541 02231217172D          

  7  6  0  0  1  0            999 V2000
    2.0625    0.7145    0.0000 N   0  0  0  0  0  0  0  0  0  0  0  0
    1.2375    0.7145    0.0000 C   0  0  2  0  0  0  0  0  0  0  0  0
    0.8250    1.4289    0.0000 C   0  0  0  0  0  0  0  0  0  0  0  0
    1.2375    2.1434    0.0000 O   0  0  0  0  0  0  0  0  0  0  0  0
    0.8250    0.0000    0.0000 C   0  0  0  0  0  0  0  0  0  0  0  0
    1.2375   -0.7145    0.0000 O   0  0  0  0  0  0  0  0  0  0  0  0
    0.0000    0.0000    0.0000 O   0  0  0  0  0  0  0  0  0  0  0  0
  2  1  1  1  0  0  0
  2  3  1  0  0  0  0
  3  4  1  0  0  0  0
  2  5  1  0  0  0  0
  5  6  1  0  0  0  0
  5  7  2  0  0  0  0
M  END
> <DRUGBANK_ID>
DB03929

> <DRUG_GROUPS>
experimental

> <GENERIC_NAME>
D-Serine

> <CHEMICAL_FORMULA>
C3H7NO3

> <MOLECULAR_WEIGHT>
105.0926

> <EXACT_MASS>
105.042593095

> <IUPAC_NAME>
(2R)-2-amino-3-hydroxypropanoic acid

> <IUPAC_TRADITIONAL_NAME>
D-serine

> <INCHI_IDENTIFIER>
InChI=1S/C3H7NO3/c4-2(1-5)3(6)7/h2,5H,1,4H2,(H,6,7)/t2-/m1/s1

> <INCHI_KEY>
InChIKey=MTCFGRXMJLQNBG-UWTATZPHSA-N

> <SMILES>
N[C@H](CO)C(O)=O

> <JCHEM_ACCEPTOR_COUNT>
4

> <JCHEM_DONOR_COUNT>
3

> <JCHEM_ACIDIC_PKA>
2.03

> <JCHEM_BASIC_PKA>
8.93

> <JCHEM_PHYSIOLOGICAL_CHARGE>
0

> <ALOGPS_LOGP>
-3.4

> <JCHEM_LOGP>
-3.9

> <ALOGPS_LOGS>
0.66

> <JCHEM_POLARIZABILITY>
9.39

> <JCHEM_POLAR_SURFACE_AREA>
83.55

> <JCHEM_REFRACTIVITY>
22.04

> <JCHEM_ROTATABLE_BOND_COUNT>
2

> <ALOGPS_SOLUBILITY>
4.80e+02 g/l __ 

$$$$
