
  Mrv0541 02231216422D          

 26 26  0  0  1  0            999 V2000
   -0.6747   -1.8812    0.0000 C   0  0  0  0  0  0  0  0  0  0  0  0
   -1.2581   -1.2978    0.0000 C   0  0  1  0  0  0  0  0  0  0  0  0
   -1.8414   -1.8812    0.0000 O   0  0  0  0  0  0  0  0  0  0  0  0
   -1.6279   -2.6781    0.0000 C   0  0  1  0  0  0  0  0  0  0  0  0
   -0.8310   -2.8916    0.0000 C   0  0  0  0  0  0  0  0  0  0  0  0
   -0.6175   -3.6885    0.0000 C   0  0  0  0  0  0  0  0  0  0  0  0
   -1.2009   -4.2719    0.0000 C   0  0  0  0  0  0  0  0  0  0  0  0
   -1.9978   -4.0583    0.0000 C   0  0  2  0  0  0  0  0  0  0  0  0
   -2.5811   -4.6417    0.0000 O   0  0  0  0  0  0  0  0  0  0  0  0
   -2.3676   -5.4386    0.0000 P   0  0  0  0  0  0  0  0  0  0  0  0
   -2.1541   -6.2355    0.0000 O   0  0  0  0  0  0  0  0  0  0  0  0
   -1.5707   -5.2251    0.0000 O   0  0  0  0  0  0  0  0  0  0  0  0
   -3.1645   -5.6521    0.0000 O   0  0  0  0  0  0  0  0  0  0  0  0
   -2.2113   -3.2614    0.0000 C   0  0  2  0  0  0  0  0  0  0  0  0
   -3.0082   -3.0479    0.0000 O   0  0  0  0  0  0  0  0  0  0  0  0
    0.1794   -3.9020    0.0000 C   0  0  0  0  0  0  0  0  0  0  0  0
    0.3929   -4.6989    0.0000 O   0  0  0  0  0  0  0  0  0  0  0  0
    0.7628   -3.3187    0.0000 O   0  0  0  0  0  0  0  0  0  0  0  0
   -1.8414   -0.7145    0.0000 O   0  0  0  0  0  0  0  0  0  0  0  0
   -2.6383   -0.9280    0.0000 P   0  0  0  0  0  0  0  0  0  0  0  0
   -3.4352   -1.1415    0.0000 O   0  0  0  0  0  0  0  0  0  0  0  0
   -2.4248   -1.7249    0.0000 O   0  0  0  0  0  0  0  0  0  0  0  0
   -2.8519   -0.1311    0.0000 O   0  0  0  0  0  0  0  0  0  0  0  0
   -0.6747   -0.7145    0.0000 C   0  0  0  0  0  0  0  0  0  0  0  0
    0.1222   -0.9280    0.0000 O   0  0  0  0  0  0  0  0  0  0  0  0
   -0.8882    0.0824    0.0000 O   0  0  0  0  0  0  0  0  0  0  0  0
  2  1  1  1  0  0  0
  2  3  1  6  0  0  0
  4  3  1  1  0  0  0
  4  5  1  0  0  0  0
  5  6  1  0  0  0  0
  6  7  2  0  0  0  0
  7  8  1  0  0  0  0
  8  9  1  6  0  0  0
  9 10  1  0  0  0  0
 10 11  1  0  0  0  0
 10 12  1  0  0  0  0
 10 13  2  0  0  0  0
  8 14  1  0  0  0  0
  4 14  1  0  0  0  0
 14 15  1  6  0  0  0
  6 16  1  0  0  0  0
 16 17  1  0  0  0  0
 16 18  2  0  0  0  0
  2 19  1  0  0  0  0
 19 20  1  0  0  0  0
 20 21  1  0  0  0  0
 20 22  1  0  0  0  0
 20 23  2  0  0  0  0
  2 24  1  0  0  0  0
 24 25  1  0  0  0  0
 24 26  2  0  0  0  0
M  END
> <DRUGBANK_ID>
DB03116

> <DRUG_GROUPS>
experimental

> <GENERIC_NAME>
5-(1-Carboxy-1-Phosphonooxy-Ethoxyl)-Shikimate-3-Phosphate

> <CHEMICAL_FORMULA>
C10H16O14P2

> <MOLECULAR_WEIGHT>
422.1732

> <EXACT_MASS>
422.001528244

> <IUPAC_NAME>
(3S,4R,5S)-5-[(1R)-1-carboxy-1-(phosphonooxy)ethoxy]-4-hydroxy-3-(phosphonooxy)cyclohex-1-ene-1-carboxylic acid

> <IUPAC_TRADITIONAL_NAME>
(3S,4R,5S)-5-[(1R)-1-carboxy-1-(phosphonooxy)ethoxy]-4-hydroxy-3-(phosphonooxy)cyclohex-1-ene-1-carboxylic acid

> <INCHI_IDENTIFIER>
InChI=1S/C10H16O14P2/c1-10(9(14)15,24-26(19,20)21)22-5-2-4(8(12)13)3-6(7(5)11)23-25(16,17)18/h3,5-7,11H,2H2,1H3,(H,12,13)(H,14,15)(H2,16,17,18)(H2,19,20,21)/t5-,6-,7+,10+/m0/s1

> <INCHI_KEY>
InChIKey=QUQKBSPZUVNKIF-CLIVKXMMSA-N

> <SMILES>
C[C@@](O[C@H]1CC(=C[C@H](OP(O)(O)=O)[C@@H]1O)C(O)=O)(OP(O)(O)=O)C(O)=O

> <JCHEM_ACCEPTOR_COUNT>
12

> <JCHEM_DONOR_COUNT>
7

> <JCHEM_ACIDIC_PKA>
0.72

> <JCHEM_BASIC_PKA>
-3.6

> <JCHEM_PHYSIOLOGICAL_CHARGE>
-6

> <ALOGPS_LOGP>
-1.3

> <JCHEM_LOGP>
-1.6

> <ALOGPS_LOGS>
-1.7

> <JCHEM_POLARIZABILITY>
32.23

> <JCHEM_POLAR_SURFACE_AREA>
237.58

> <JCHEM_REFRACTIVITY>
77.74

> <JCHEM_ROTATABLE_BOND_COUNT>
8

> <ALOGPS_SOLUBILITY>
7.87e+00 g/l __ 

$$$$
