
  Mrv0541 02231216532D          

 17 18  0  0  1  0            999 V2000
    0.7145   -0.4125    0.0000 C   0  0  0  0  0  0  0  0  0  0  0  0
    0.7145   -1.2375    0.0000 C   0  0  0  0  0  0  0  0  0  0  0  0
    1.3819   -1.7224    0.0000 N   0  0  0  0  0  0  0  0  0  0  0  0
    1.1270   -2.5070    0.0000 N   0  0  0  0  0  0  0  0  0  0  0  0
    0.3020   -2.5070    0.0000 C   0  0  0  0  0  0  0  0  0  0  0  0
    0.0470   -1.7224    0.0000 O   0  0  0  0  0  0  0  0  0  0  0  0
   -0.1830   -3.1745    0.0000 C   0  0  1  0  0  0  0  0  0  0  0  0
    0.1526   -3.9282    0.0000 O   0  0  0  0  0  0  0  0  0  0  0  0
   -0.3323   -4.5956    0.0000 C   0  0  1  0  0  0  0  0  0  0  0  0
    0.0032   -5.3493    0.0000 C   0  0  0  0  0  0  0  0  0  0  0  0
    0.8237   -5.4355    0.0000 O   0  0  0  0  0  0  0  0  0  0  0  0
   -1.1528   -4.5094    0.0000 C   0  0  2  0  0  0  0  0  0  0  0  0
   -1.6377   -5.1768    0.0000 O   0  0  0  0  0  0  0  0  0  0  0  0
   -1.4884   -3.7557    0.0000 C   0  0  1  0  0  0  0  0  0  0  0  0
   -2.3088   -3.6695    0.0000 O   0  0  0  0  0  0  0  0  0  0  0  0
   -1.0034   -3.0882    0.0000 C   0  0  2  0  0  0  0  0  0  0  0  0
   -1.3390   -2.3346    0.0000 O   0  0  0  0  0  0  0  0  0  0  0  0
  1  2  1  0  0  0  0
  2  3  2  0  0  0  0
  3  4  1  0  0  0  0
  4  5  2  0  0  0  0
  5  6  1  0  0  0  0
  2  6  1  0  0  0  0
  7  5  1  1  0  0  0
  7  8  1  0  0  0  0
  8  9  1  0  0  0  0
  9 10  1  1  0  0  0
 10 11  1  0  0  0  0
  9 12  1  0  0  0  0
 12 13  1  6  0  0  0
 12 14  1  0  0  0  0
 14 15  1  1  0  0  0
 14 16  1  0  0  0  0
  7 16  1  0  0  0  0
 16 17  1  6  0  0  0
M  END
> <DRUGBANK_ID>
DB03354

> <DRUG_GROUPS>
experimental

> <GENERIC_NAME>
2-(Beta-D-Glucopyranosyl)-5-Methyl-1,3,4-Oxadiazole

> <CHEMICAL_FORMULA>
C9H14N2O6

> <MOLECULAR_WEIGHT>
246.2173

> <EXACT_MASS>
246.08518619

> <IUPAC_NAME>
(2S,3R,4R,5S,6S)-2-(hydroxymethyl)-6-(5-methyl-1,3,4-oxadiazol-2-yl)oxane-3,4,5-triol

> <IUPAC_TRADITIONAL_NAME>
(2S,3R,4R,5S,6S)-2-(hydroxymethyl)-6-(5-methyl-1,3,4-oxadiazol-2-yl)oxane-3,4,5-triol

> <INCHI_IDENTIFIER>
InChI=1S/C9H14N2O6/c1-3-10-11-9(16-3)8-7(15)6(14)5(13)4(2-12)17-8/h4-8,12-15H,2H2,1H3/t4-,5-,6+,7-,8-/m0/s1

> <INCHI_KEY>
InChIKey=HCSFWJQLIPWUFZ-RLMOJYMMSA-N

> <SMILES>
CC1=NN=C(O1)[C@H]1O[C@@H](CO)[C@H](O)[C@@H](O)[C@@H]1O

> <JCHEM_ACCEPTOR_COUNT>
7

> <JCHEM_DONOR_COUNT>
4

> <JCHEM_ACIDIC_PKA>
12.4

> <JCHEM_BASIC_PKA>
-1.7

> <JCHEM_PHYSIOLOGICAL_CHARGE>
0

> <ALOGPS_LOGP>
-1.6

> <JCHEM_LOGP>
-3.5

> <ALOGPS_LOGS>
-0.7

> <JCHEM_POLARIZABILITY>
23.34

> <JCHEM_POLAR_SURFACE_AREA>
129.07

> <JCHEM_REFRACTIVITY>
53.94

> <JCHEM_ROTATABLE_BOND_COUNT>
2

> <ALOGPS_SOLUBILITY>
4.87e+01 g/l __ 

$$$$
