
  Mrv0541 02231217042D          

 46 48  0  0  1  0            999 V2000
   -0.7145    4.5375    0.0000 O   0  0  0  0  0  0  0  0  0  0  0  0
   -0.7145    3.7125    0.0000 C   0  0  0  0  0  0  0  0  0  0  0  0
   -1.4289    3.3000    0.0000 C   0  0  2  0  0  0  0  0  0  0  0  0
   -1.4289    2.4750    0.0000 O   0  0  0  0  0  0  0  0  0  0  0  0
   -2.1434    2.0625    0.0000 C   0  0  2  0  0  0  0  0  0  0  0  0
   -2.1434    1.2375    0.0000 O   0  0  0  0  0  0  0  0  0  0  0  0
   -1.4289    0.8250    0.0000 C   0  0  0  0  0  0  0  0  0  0  0  0
   -1.4289    0.0000    0.0000 C   0  0  0  0  0  0  0  0  0  0  0  0
   -0.7145   -0.4125    0.0000 C   0  0  0  0  0  0  0  0  0  0  0  0
   -0.7145   -1.2375    0.0000 N   0  0  0  0  0  0  0  0  0  0  0  0
    0.0000   -1.6500    0.0000 C   0  0  0  0  0  0  0  0  0  0  0  0
    0.7145   -1.2375    0.0000 O   0  0  0  0  0  0  0  0  0  0  0  0
    0.0000   -2.4750    0.0000 C   0  0  0  0  0  0  0  0  0  0  0  0
    0.7145   -2.8875    0.0000 C   0  0  0  0  0  0  0  0  0  0  0  0
    0.7145   -3.7125    0.0000 C   0  0  0  0  0  0  0  0  0  0  0  0
    0.0000   -4.1250    0.0000 C   0  0  0  0  0  0  0  0  0  0  0  0
   -0.7145   -3.7125    0.0000 C   0  0  0  0  0  0  0  0  0  0  0  0
   -1.4289   -4.1250    0.0000 C   0  0  0  0  0  0  0  0  0  0  0  0
   -2.1434   -3.7125    0.0000 N   0  0  0  0  0  0  0  0  0  0  0  0
   -2.1434   -2.8875    0.0000 N   0  3  0  0  0  0  0  0  0  0  0  0
   -2.1434   -2.0625    0.0000 N   0  5  0  0  0  0  0  0  0  0  0  0
   -0.7145   -2.8875    0.0000 C   0  0  0  0  0  0  0  0  0  0  0  0
    1.4289   -4.1250    0.0000 C   0  0  0  0  0  0  0  0  0  0  0  0
    1.4289   -4.9500    0.0000 O   0  0  0  0  0  0  0  0  0  0  0  0
    2.1434   -3.7125    0.0000 N   0  0  0  0  0  0  0  0  0  0  0  0
    2.8579   -4.1250    0.0000 C   0  0  0  0  0  0  0  0  0  0  0  0
    3.5724   -3.7125    0.0000 C   0  0  0  0  0  0  0  0  0  0  0  0
    4.2868   -4.1250    0.0000 C   0  0  0  0  0  0  0  0  0  0  0  0
    5.0013   -3.7125    0.0000 O   0  0  0  0  0  0  0  0  0  0  0  0
    5.7158   -4.1250    0.0000 C   0  0  1  0  0  0  0  0  0  0  0  0
    6.4302   -3.7125    0.0000 O   0  0  0  0  0  0  0  0  0  0  0  0
    7.1447   -4.1250    0.0000 C   0  0  1  0  0  0  0  0  0  0  0  0
    7.8592   -3.7125    0.0000 C   0  0  0  0  0  0  0  0  0  0  0  0
    8.5737   -4.1250    0.0000 O   0  0  0  0  0  0  0  0  0  0  0  0
    7.1447   -4.9500    0.0000 C   0  0  2  0  0  0  0  0  0  0  0  0
    7.8592   -5.3625    0.0000 O   0  0  0  0  0  0  0  0  0  0  0  0
    6.4302   -5.3625    0.0000 C   0  0  1  0  0  0  0  0  0  0  0  0
    6.4302   -6.1875    0.0000 O   0  0  0  0  0  0  0  0  0  0  0  0
    5.7158   -4.9500    0.0000 C   0  0  2  0  0  0  0  0  0  0  0  0
    5.0013   -5.3625    0.0000 O   0  0  0  0  0  0  0  0  0  0  0  0
   -2.8579    2.4750    0.0000 C   0  0  1  0  0  0  0  0  0  0  0  0
   -3.5724    2.0625    0.0000 O   0  0  0  0  0  0  0  0  0  0  0  0
   -2.8579    3.3000    0.0000 C   0  0  2  0  0  0  0  0  0  0  0  0
   -3.5724    3.7125    0.0000 O   0  0  0  0  0  0  0  0  0  0  0  0
   -2.1434    3.7125    0.0000 C   0  0  1  0  0  0  0  0  0  0  0  0
   -2.1434    4.5375    0.0000 O   0  0  0  0  0  0  0  0  0  0  0  0
  1  2  1  0  0  0  0
  3  2  1  6  0  0  0
  3  4  1  0  0  0  0
  4  5  1  0  0  0  0
  5  6  1  6  0  0  0
  6  7  1  0  0  0  0
  7  8  1  0  0  0  0
  8  9  1  0  0  0  0
  9 10  1  0  0  0  0
 10 11  1  0  0  0  0
 11 12  2  0  0  0  0
 11 13  1  0  0  0  0
 13 14  2  0  0  0  0
 14 15  1  0  0  0  0
 15 16  2  0  0  0  0
 16 17  1  0  0  0  0
 17 18  1  0  0  0  0
 18 19  1  0  0  0  0
 19 20  2  0  0  0  0
 20 21  2  0  0  0  0
 17 22  2  0  0  0  0
 13 22  1  0  0  0  0
 15 23  1  0  0  0  0
 23 24  2  0  0  0  0
 23 25  1  0  0  0  0
 25 26  1  0  0  0  0
 26 27  1  0  0  0  0
 27 28  1  0  0  0  0
 28 29  1  0  0  0  0
 30 29  1  1  0  0  0
 30 31  1  0  0  0  0
 31 32  1  0  0  0  0
 32 33  1  1  0  0  0
 33 34  1  0  0  0  0
 32 35  1  0  0  0  0
 35 36  1  6  0  0  0
 35 37  1  0  0  0  0
 37 38  1  1  0  0  0
 37 39  1  0  0  0  0
 30 39  1  0  0  0  0
 39 40  1  6  0  0  0
  5 41  1  0  0  0  0
 41 42  1  1  0  0  0
 41 43  1  0  0  0  0
 43 44  1  6  0  0  0
 43 45  1  0  0  0  0
  3 45  1  0  0  0  0
 45 46  1  1  0  0  0
M  END
> <DRUGBANK_ID>
DB03634

> <DRUG_GROUPS>
experimental

> <GENERIC_NAME>
1,3-Di(N-Propyloxy-a-Mannopyranosyl)-Carbomyl 5-Methyazido-Benzene

> <CHEMICAL_FORMULA>
C27H41N5O14

> <MOLECULAR_WEIGHT>
659.6395

> <EXACT_MASS>
659.265001045

> <IUPAC_NAME>
5-(azidomethyl)-1-N,3-N-bis(3-{[(2S,3S,4R,5R,6S)-3,4,5-trihydroxy-6-(hydroxymethyl)oxan-2-yl]oxy}propyl)benzene-1,3-dicarboxamide

> <IUPAC_TRADITIONAL_NAME>
5-(azidomethyl)-1-N,3-N-bis(3-{[(2S,3S,4R,5R,6S)-3,4,5-trihydroxy-6-(hydroxymethyl)oxan-2-yl]oxy}propyl)benzene-1,3-dicarboxamide

> <INCHI_IDENTIFIER>
InChI=1S/C27H41N5O14/c28-32-31-10-13-7-14(24(41)29-3-1-5-43-26-22(39)20(37)18(35)16(11-33)45-26)9-15(8-13)25(42)30-4-2-6-44-27-23(40)21(38)19(36)17(12-34)46-27/h7-9,16-23,26-27,33-40H,1-6,10-12H2,(H,29,41)(H,30,42)/t16-,17-,18-,19-,20+,21+,22-,23-,26-,27-/m0/s1

> <INCHI_KEY>
InChIKey=GKRIMQPDERYOML-WUSUXDPJSA-N

> <SMILES>
OC[C@@H]1O[C@H](OCCCNC(=O)C2=CC(=CC(CN=[N+]=[N-])=C2)C(=O)NCCCO[C@H]2O[C@@H](CO)[C@H](O)[C@@H](O)[C@@H]2O)[C@@H](O)[C@H](O)[C@H]1O

> <JCHEM_ACCEPTOR_COUNT>
16

> <JCHEM_DONOR_COUNT>
10

> <JCHEM_ACIDIC_PKA>
11.91

> <JCHEM_BASIC_PKA>
-3.6

> <JCHEM_PHYSIOLOGICAL_CHARGE>
0

> <ALOGPS_LOGP>
-1.3

> <JCHEM_LOGP>
-4.6

> <ALOGPS_LOGS>
-1.9

> <JCHEM_POLARIZABILITY>
67.69

> <JCHEM_POLAR_SURFACE_AREA>
286.39

> <JCHEM_REFRACTIVITY>
154.26

> <JCHEM_ROTATABLE_BOND_COUNT>
16

> <ALOGPS_SOLUBILITY>
8.15e+00 g/l __ 

$$$$
