
  Mrv0541 02231216482D          

 15 15  0  0  1  0            999 V2000
   -1.2957   -0.0679    0.0000 C   0  0  0  0  0  0  0  0  0  0  0  0
   -0.5812   -0.4804    0.0000 C   0  0  0  0  0  0  0  0  0  0  0  0
    0.1333   -0.0679    0.0000 C   0  0  0  0  0  0  0  0  0  0  0  0
   -0.5812   -1.3054    0.0000 C   0  0  0  0  0  0  0  0  0  0  0  0
    0.1333   -1.7179    0.0000 C   0  0  1  0  0  0  0  0  0  0  0  0
    0.1333   -2.5429    0.0000 N   0  0  0  0  0  0  0  0  0  0  0  0
    0.8007   -3.0278    0.0000 C   0  0  0  0  0  0  0  0  0  0  0  0
    0.5458   -3.8124    0.0000 C   0  0  0  0  0  0  0  0  0  0  0  0
    1.0307   -4.4799    0.0000 C   0  0  0  0  0  0  0  0  0  0  0  0
    1.8512   -4.3937    0.0000 N   0  0  0  0  0  0  0  0  0  0  0  0
   -0.2792   -3.8124    0.0000 N   0  0  0  0  0  0  0  0  0  0  0  0
   -0.5342   -3.0278    0.0000 N   0  0  0  0  0  0  0  0  0  0  0  0
    0.8477   -1.3054    0.0000 C   0  0  0  0  0  0  0  0  0  0  0  0
    0.8477   -0.4804    0.0000 O   0  0  0  0  0  0  0  0  0  0  0  0
    1.5622   -1.7179    0.0000 O   0  0  0  0  0  0  0  0  0  0  0  0
  1  2  1  0  0  0  0
  2  3  1  0  0  0  0
  2  4  1  0  0  0  0
  4  5  1  0  0  0  0
  5  6  1  6  0  0  0
  6  7  1  0  0  0  0
  7  8  2  0  0  0  0
  8  9  1  0  0  0  0
  9 10  1  0  0  0  0
  8 11  1  0  0  0  0
 11 12  2  0  0  0  0
  6 12  1  0  0  0  0
  5 13  1  0  0  0  0
 13 14  1  0  0  0  0
 13 15  2  0  0  0  0
M  END
> <DRUGBANK_ID>
DB03244

> <DRUG_GROUPS>
experimental

> <GENERIC_NAME>
(S)-2-[4-(Aminomethyl)-1h-1,2,3-Triazol-1-Yl]-4-Methylpentanoic Acid

> <CHEMICAL_FORMULA>
C9H16N4O2

> <MOLECULAR_WEIGHT>
212.2489

> <EXACT_MASS>
212.127325776

> <IUPAC_NAME>
(2R)-2-[4-(aminomethyl)-1H-1,2,3-triazol-1-yl]-4-methylpentanoic acid

> <IUPAC_TRADITIONAL_NAME>
(2R)-2-[4-(aminomethyl)-1,2,3-triazol-1-yl]-4-methylpentanoic acid

> <INCHI_IDENTIFIER>
InChI=1S/C9H16N4O2/c1-6(2)3-8(9(14)15)13-5-7(4-10)11-12-13/h5-6,8H,3-4,10H2,1-2H3,(H,14,15)/t8-/m1/s1

> <INCHI_KEY>
InChIKey=IAMZCZOWEDXWHW-MRVPVSSYSA-N

> <SMILES>
CC(C)C[C@@H](N1C=C(CN)N=N1)C(O)=O

> <JCHEM_ACCEPTOR_COUNT>
5

> <JCHEM_DONOR_COUNT>
2

> <JCHEM_ACIDIC_PKA>
3.49

> <JCHEM_BASIC_PKA>
8.24

> <JCHEM_PHYSIOLOGICAL_CHARGE>
0

> <ALOGPS_LOGP>
-1.9

> <JCHEM_LOGP>
-1.7

> <ALOGPS_LOGS>
-1.6

> <JCHEM_POLARIZABILITY>
22.32

> <JCHEM_POLAR_SURFACE_AREA>
94.03

> <JCHEM_REFRACTIVITY>
65.52

> <JCHEM_ROTATABLE_BOND_COUNT>
5

> <ALOGPS_SOLUBILITY>
5.75e+00 g/l __ 

$$$$
