
  Mrv0541 02231218012D          

 37 41  0  0  1  0            999 V2000
    7.5194   -0.7349    0.0000 S   0  0  0  0  0  0  0  0  0  0  0  0
   13.1576   -1.1438    0.0000 S   0  0  0  0  0  0  0  0  0  0  0  0
    9.6478    1.0906    0.0000 O   0  0  0  0  0  0  0  0  0  0  0  0
    4.4506    1.6452    0.0000 O   0  0  0  0  0  0  0  0  0  0  0  0
    8.2338    2.1526    0.0000 O   0  0  0  0  0  0  0  0  0  0  0  0
    6.8048    2.1526    0.0000 O   0  0  0  0  0  0  0  0  0  0  0  0
   10.6604    0.0979    0.0000 O   0  0  0  0  0  0  0  0  0  0  0  0
   11.3944   -2.6641    0.0000 O   0  0  0  0  0  0  0  0  0  0  0  0
    4.0701    0.2251    0.0000 N   0  0  0  0  0  0  0  0  0  0  0  0
    8.2338    0.5026    0.0000 N   0  0  0  0  0  0  0  0  0  0  0  0
    2.0301    0.8542    0.0000 N   0  0  0  0  0  0  0  0  0  0  0  0
    9.6478   -0.9104    0.0000 N   0  0  0  0  0  0  0  0  0  0  0  0
   10.8122   -2.0795    0.0000 N   0  0  0  0  0  0  0  0  0  0  0  0
   12.4648   -1.5917    0.0000 N   0  0  0  0  0  0  0  0  0  0  0  0
   12.1220   -0.3016    0.0000 N   0  0  0  0  0  0  0  0  0  0  0  0
   13.4663    0.2936    0.0000 N   0  0  0  0  0  0  0  0  0  0  0  0
    3.2497    0.3113    0.0000 C   0  0  2  0  0  0  0  0  0  0  0  0
    8.2338   -0.3224    0.0000 C   0  0  1  0  0  0  0  0  0  0  0  0
    9.0657   -0.3259    0.0000 C   0  0  1  0  0  0  0  0  0  0  0  0
    2.6976   -0.3018    0.0000 C   0  0  0  0  0  0  0  0  0  0  0  0
    2.8372    1.0257    0.0000 C   0  0  0  0  0  0  0  0  0  0  0  0
    4.4827   -0.4894    0.0000 C   0  0  0  0  0  0  0  0  0  0  0  0
    1.9439    0.0337    0.0000 C   0  0  0  0  0  0  0  0  0  0  0  0
    9.0657    0.5060    0.0000 C   0  0  0  0  0  0  0  0  0  0  0  0
    5.2897   -0.3179    0.0000 C   0  0  0  0  0  0  0  0  0  0  0  0
    5.3759    0.5026    0.0000 C   0  0  0  0  0  0  0  0  0  0  0  0
    4.6222    0.8381    0.0000 C   0  0  0  0  0  0  0  0  0  0  0  0
    7.5194    0.9151    0.0000 C   0  0  0  0  0  0  0  0  0  0  0  0
    6.8048    0.5026    0.0000 C   0  0  0  0  0  0  0  0  0  0  0  0
    6.8048   -0.3224    0.0000 C   0  0  0  0  0  0  0  0  0  0  0  0
    6.0904    0.9151    0.0000 C   0  0  0  0  0  0  0  0  0  0  0  0
    7.5194    1.7401    0.0000 C   0  0  0  0  0  0  0  0  0  0  0  0
   10.4452   -0.6985    0.0000 C   0  0  0  0  0  0  0  0  0  0  0  0
   11.0274   -1.2831    0.0000 C   0  0  0  0  0  0  0  0  0  0  0  0
   11.8247   -1.0712    0.0000 C   0  0  0  0  0  0  0  0  0  0  0  0
   12.9458   -0.3465    0.0000 C   0  0  0  0  0  0  0  0  0  0  0  0
    8.4034   -0.9603    0.0000 H   0  0  0  0  0  0  0  0  0  0  0  0
  1 18  1  0  0  0  0
  1 30  1  0  0  0  0
  2 14  1  0  0  0  0
  2 36  1  0  0  0  0
  3 24  2  0  0  0  0
  4 27  2  0  0  0  0
  5 32  1  0  0  0  0
  6 32  2  0  0  0  0
  7 33  2  0  0  0  0
  8 13  2  0  0  0  0
 17  9  1  6  0  0  0
  9 22  1  0  0  0  0
  9 27  1  0  0  0  0
 10 18  1  0  0  0  0
 10 24  1  0  0  0  0
 10 28  1  0  0  0  0
 11 21  1  0  0  0  0
 11 23  1  0  0  0  0
 19 12  1  1  0  0  0
 12 33  1  0  0  0  0
 13 34  1  0  0  0  0
 14 35  1  0  0  0  0
 15 35  1  0  0  0  0
 15 36  2  0  0  0  0
 16 36  1  0  0  0  0
 17 20  1  0  0  0  0
 17 21  1  0  0  0  0
 18 19  1  0  0  0  0
 18 37  1  6  0  0  0
 19 24  1  0  0  0  0
 20 23  1  0  0  0  0
 22 25  1  0  0  0  0
 25 26  1  0  0  0  0
 26 27  1  0  0  0  0
 26 31  2  0  0  0  0
 28 29  2  0  0  0  0
 28 32  1  0  0  0  0
 29 30  1  0  0  0  0
 29 31  1  0  0  0  0
 33 34  1  0  0  0  0
 34 35  2  0  0  0  0
M  END
> <DRUGBANK_ID>
DB04918

> <DRUG_GROUPS>
investigational

> <GENERIC_NAME>
Ceftobiprole

> <SYNONYMS>


> <CHEMICAL_FORMULA>
C20H22N8O6S2

> <MOLECULAR_WEIGHT>
534.569

> <EXACT_MASS>
534.110371856

> <IUPAC_NAME>
(6R,7R)-7-{2-[(3Z)-5-amino-2,3-dihydro-1,2,4-thiadiazol-3-ylidene]-2-nitrosoacetamido}-8-oxo-3-{[(3E)-2-oxo-1-[(3R)-pyrrolidin-3-yl]pyrrolidin-3-ylidene]methyl}-5-thia-1-azabicyclo[4.2.0]oct-2-ene-2-carboxylic acid

> <IUPAC_TRADITIONAL_NAME>
(6R,7R)-7-{2-[(3Z)-5-amino-2H-1,2,4-thiadiazol-3-ylidene]-2-nitrosoacetamido}-8-oxo-3-{[(3E)-2-oxo-1-[(3R)-pyrrolidin-3-yl]pyrrolidin-3-ylidene]methyl}-5-thia-1-azabicyclo[4.2.0]oct-2-ene-2-carboxylic acid

> <INCHI_IDENTIFIER>
InChI=1S/C20H22N8O6S2/c21-20-24-14(26-36-20)11(25-34)15(29)23-12-17(31)28-13(19(32)33)9(7-35-18(12)28)5-8-2-4-27(16(8)30)10-1-3-22-6-10/h5,10,12,18,22,26H,1-4,6-7H2,(H2,21,24)(H,23,29)(H,32,33)/b8-5+,14-11-/t10-,12-,18-/m1/s1

> <INCHI_KEY>
InChIKey=LXLDMYXULSBRCX-HZEONMFJSA-N

> <SMILES>
[H][C@]12SCC(\C=C3/CCN([C@@H]4CCNC4)C3=O)=C(N1C(=O)[C@H]2NC(=O)C(\N=O)=C1\NSC(N)=N1)C(O)=O

> <JCHEM_ACCEPTOR_COUNT>
10

> <JCHEM_DONOR_COUNT>
5

> <JCHEM_ACIDIC_PKA>
3.28

> <JCHEM_BASIC_PKA>
10.33

> <JCHEM_PHYSIOLOGICAL_CHARGE>
0

> <ALOGPS_LOGP>
-1.2

> <JCHEM_LOGP>
-4.8

> <ALOGPS_LOGS>
-3

> <JCHEM_POLARIZABILITY>
50.36

> <JCHEM_POLAR_SURFACE_AREA>
198.89

> <JCHEM_REFRACTIVITY>
151.2

> <JCHEM_ROTATABLE_BOND_COUNT>
6

> <ALOGPS_SOLUBILITY>
4.78e-01 g/l __ 

$$$$
