
  Mrv0541 02231217352D          

 17 17  0  0  1  0            999 V2000
    2.1434   -2.8875    0.0000 C   0  0  0  0  0  0  0  0  0  0  0  0
    1.4289   -2.4750    0.0000 C   0  0  0  0  0  0  0  0  0  0  0  0
    0.7145   -2.8875    0.0000 C   0  0  0  0  0  0  0  0  0  0  0  0
    1.4289   -1.6500    0.0000 N   0  0  0  0  0  0  0  0  0  0  0  0
    0.7145   -1.2375    0.0000 C   0  0  0  0  0  0  0  0  0  0  0  0
    0.7145   -0.4125    0.0000 C   0  0  0  0  0  0  0  0  0  0  0  0
    0.0000    0.0000    0.0000 C   0  0  0  0  0  0  0  0  0  0  0  0
    0.0000    0.8250    0.0000 C   0  0  0  0  0  0  0  0  0  0  0  0
    0.7145    1.2375    0.0000 C   0  0  0  0  0  0  0  0  0  0  0  0
    0.7145    2.0625    0.0000 C   0  0  0  0  0  0  0  0  0  0  0  0
    0.0000    2.4750    0.0000 C   0  0  2  0  0  0  0  0  0  0  0  0
   -0.7145    2.0625    0.0000 N   0  0  0  0  0  0  0  0  0  0  0  0
    0.0000    3.3000    0.0000 C   0  0  0  0  0  0  0  0  0  0  0  0
   -0.7145    3.7125    0.0000 O   0  0  0  0  0  0  0  0  0  0  0  0
    0.7145    3.7125    0.0000 O   0  0  0  0  0  0  0  0  0  0  0  0
    1.4289    0.8250    0.0000 C   0  0  0  0  0  0  0  0  0  0  0  0
    1.4289    0.0000    0.0000 C   0  0  0  0  0  0  0  0  0  0  0  0
  1  2  1  0  0  0  0
  2  3  1  0  0  0  0
  2  4  1  0  0  0  0
  4  5  1  0  0  0  0
  5  6  1  0  0  0  0
  6  7  2  0  0  0  0
  7  8  1  0  0  0  0
  8  9  2  0  0  0  0
  9 10  1  0  0  0  0
 10 11  1  0  0  0  0
 11 12  1  6  0  0  0
 11 13  1  0  0  0  0
 13 14  1  0  0  0  0
 13 15  2  0  0  0  0
  9 16  1  0  0  0  0
 16 17  2  0  0  0  0
  6 17  1  0  0  0  0
M  END
> <DRUGBANK_ID>
DB04292

> <DRUG_GROUPS>
experimental

> <GENERIC_NAME>
4-[(Isopropylamino)Methyl]Phenylalanine

> <CHEMICAL_FORMULA>
C13H20N2O2

> <MOLECULAR_WEIGHT>
236.3101

> <EXACT_MASS>
236.152477894

> <IUPAC_NAME>
(2S)-2-amino-3-(4-{[(propan-2-yl)amino]methyl}phenyl)propanoic acid

> <IUPAC_TRADITIONAL_NAME>
(2S)-2-amino-3-{4-[(isopropylamino)methyl]phenyl}propanoic acid

> <INCHI_IDENTIFIER>
InChI=1S/C13H20N2O2/c1-9(2)15-8-11-5-3-10(4-6-11)7-12(14)13(16)17/h3-6,9,12,15H,7-8,14H2,1-2H3,(H,16,17)/t12-/m0/s1

> <INCHI_KEY>
InChIKey=RXWNCPQKMXQDHN-LBPRGKRZSA-N

> <SMILES>
CC(C)NCC1=CC=C(C[C@H](N)C(O)=O)C=C1

> <JCHEM_ACCEPTOR_COUNT>
4

> <JCHEM_DONOR_COUNT>
3

> <JCHEM_ACIDIC_PKA>
2.27

> <JCHEM_BASIC_PKA>
9.99

> <JCHEM_PHYSIOLOGICAL_CHARGE>
1

> <ALOGPS_LOGP>
-1.2

> <JCHEM_LOGP>
-1.3

> <ALOGPS_LOGS>
-3.1

> <JCHEM_POLARIZABILITY>
26.95

> <JCHEM_POLAR_SURFACE_AREA>
75.35

> <JCHEM_REFRACTIVITY>
67.53

> <JCHEM_ROTATABLE_BOND_COUNT>
6

> <ALOGPS_SOLUBILITY>
1.92e-01 g/l __ 

$$$$
