
  Mrv0541 02231217412D          

  4  3  0  0  0  0            999 V2000
    1.2375    0.7145    0.0000 O    0  0  0  0  0  0  0  0  0  0  0  0
    0.8250    0.0000    0.0000 As   0  0  0  0  0  0  0  0  0  0  0  0
    1.2375   -0.7145    0.0000 O    0  0  0  0  0  0  0  0  0  0  0  0
    0.0000    0.0000    0.0000 O    0  0  0  0  0  0  0  0  0  0  0  0
  1  2  1  0  0  0  0
  2  3  1  0  0  0  0
  2  4  1  0  0  0  0
M  END
> <DRUGBANK_ID>
DB04456

> <DRUG_GROUPS>
experimental

> <GENERIC_NAME>
Trihydroxyarsenite(Iii)

> <CHEMICAL_FORMULA>
AsH3O3

> <MOLECULAR_WEIGHT>
125.9436

> <EXACT_MASS>
125.929815379

> <IUPAC_NAME>
arsorous acid

> <IUPAC_TRADITIONAL_NAME>
trihydroxyarsenite(iii)

> <INCHI_IDENTIFIER>
InChI=1S/AsH3O3/c2-1(3)4/h2-4H

> <INCHI_KEY>
InChIKey=GCPXMJHSNVMWNM-UHFFFAOYSA-N

> <SMILES>
O[As](O)O

> <JCHEM_ACCEPTOR_COUNT>
3

> <JCHEM_DONOR_COUNT>
3

> <JCHEM_ACIDIC_PKA>
6.84

> <JCHEM_BASIC_PKA>
-6.2

> <JCHEM_PHYSIOLOGICAL_CHARGE>
-1

> <JCHEM_LOGP>
-0.86

> <JCHEM_POLARIZABILITY>
6.27

> <JCHEM_POLAR_SURFACE_AREA>
60.69

> <JCHEM_REFRACTIVITY>
7.69

> <JCHEM_ROTATABLE_BOND_COUNT>
0 __ 

$$$$
