
  Mrv0541 02231217352D          

 31 32  0  0  1  0            999 V2000
   -1.4949   -8.4464    0.0000 C   0  0  0  0  0  0  0  0  0  0  0  0
   -0.7804   -8.8589    0.0000 N   0  3  0  0  0  0  0  0  0  0  0  0
   -1.1929   -9.5734    0.0000 C   0  0  0  0  0  0  0  0  0  0  0  0
   -0.3679   -8.1445    0.0000 C   0  0  0  0  0  0  0  0  0  0  0  0
   -0.0659   -9.2714    0.0000 C   0  0  0  0  0  0  0  0  0  0  0  0
    0.6485   -8.8589    0.0000 C   0  0  0  0  0  0  0  0  0  0  0  0
    1.3630   -9.2714    0.0000 O   0  0  0  0  0  0  0  0  0  0  0  0
    2.0775   -8.8589    0.0000 P   0  0  2  0  0  0  0  0  0  0  0  0
    2.4900   -9.5734    0.0000 O   0  5  0  0  0  0  0  0  0  0  0  0
    1.6650   -8.1445    0.0000 O   0  0  0  0  0  0  0  0  0  0  0  0
    2.7919   -8.4464    0.0000 O   0  0  0  0  0  0  0  0  0  0  0  0
    3.5064   -8.8589    0.0000 P   0  0  1  0  0  0  0  0  0  0  0  0
    3.0939   -9.5734    0.0000 O   0  0  0  0  0  0  0  0  0  0  0  0
    3.9189   -8.1445    0.0000 O   0  0  0  0  0  0  0  0  0  0  0  0
    4.2209   -9.2714    0.0000 O   0  0  0  0  0  0  0  0  0  0  0  0
    4.9354   -8.8589    0.0000 C   0  0  0  0  0  0  0  0  0  0  0  0
    5.6498   -9.2714    0.0000 C   0  0  2  0  0  0  0  0  0  0  0  0
    6.4035   -8.9359    0.0000 O   0  0  0  0  0  0  0  0  0  0  0  0
    6.9555   -9.5490    0.0000 C   0  0  2  0  0  0  0  0  0  0  0  0
    6.5430  -10.2634    0.0000 C   0  0  2  0  0  0  0  0  0  0  0  0
    6.8786  -11.0171    0.0000 O   0  0  0  0  0  0  0  0  0  0  0  0
    5.7361  -10.0919    0.0000 C   0  0  1  0  0  0  0  0  0  0  0  0
    5.1230  -10.6440    0.0000 O   0  0  0  0  0  0  0  0  0  0  0  0
    7.7760   -9.4627    0.0000 N   0  0  0  0  0  0  0  0  0  0  0  0
    8.1116   -8.7091    0.0000 C   0  0  0  0  0  0  0  0  0  0  0  0
    8.9321   -8.6228    0.0000 C   0  0  0  0  0  0  0  0  0  0  0  0
    9.4170   -9.2903    0.0000 C   0  0  0  0  0  0  0  0  0  0  0  0
   10.2375   -9.2040    0.0000 N   0  0  0  0  0  0  0  0  0  0  0  0
    9.0814  -10.0439    0.0000 N   0  0  0  0  0  0  0  0  0  0  0  0
    8.2609  -10.1302    0.0000 C   0  0  0  0  0  0  0  0  0  0  0  0
    7.9254  -10.8839    0.0000 O   0  0  0  0  0  0  0  0  0  0  0  0
  1  2  1  0  0  0  0
  2  3  1  0  0  0  0
  2  4  1  0  0  0  0
  2  5  1  0  0  0  0
  5  6  1  0  0  0  0
  6  7  1  0  0  0  0
  8  7  1  6  0  0  0
  8  9  1  1  0  0  0
  8 10  2  0  0  0  0
  8 11  1  0  0  0  0
 12 11  1  1  0  0  0
 12 13  1  6  0  0  0
 12 14  2  0  0  0  0
 12 15  1  0  0  0  0
 15 16  1  0  0  0  0
 17 16  1  6  0  0  0
 17 18  1  0  0  0  0
 18 19  1  0  0  0  0
 19 20  1  0  0  0  0
 20 21  1  6  0  0  0
 20 22  1  0  0  0  0
 17 22  1  0  0  0  0
 22 23  1  1  0  0  0
 19 24  1  1  0  0  0
 24 25  1  0  0  0  0
 25 26  2  0  0  0  0
 26 27  1  0  0  0  0
 27 28  1  0  0  0  0
 27 29  2  0  0  0  0
 29 30  1  0  0  0  0
 24 30  1  0  0  0  0
 30 31  2  0  0  0  0
M  END
> <DRUGBANK_ID>
DB04290

> <DRUG_GROUPS>
experimental

> <GENERIC_NAME>
[2-Cytidylate-O'-Phosphonyloxyl]-Ethyl-Trimethyl-Ammonium

> <CHEMICAL_FORMULA>
C14H26N4O11P2

> <MOLECULAR_WEIGHT>
488.324

> <EXACT_MASS>
488.107330718

> <IUPAC_NAME>
(2-{[(S)-({[(2S,3R,4R,5R)-5-(4-amino-2-oxo-1,2-dihydropyrimidin-1-yl)-3,4-dihydroxyoxolan-2-yl]methoxy}(hydroxy)phosphoryl phosphonato)]oxy}ethyl)trimethylazanium

> <IUPAC_TRADITIONAL_NAME>
(2-{[(S)-([(2S,3R,4R,5R)-5-(4-amino-2-oxopyrimidin-1-yl)-3,4-dihydroxyoxolan-2-yl]methoxy(hydroxy)phosphoryl phosphonato)]oxy}ethyl)trimethylazanium

> <INCHI_IDENTIFIER>
InChI=1S/C14H26N4O11P2/c1-18(2,3)6-7-26-30(22,23)29-31(24,25)27-8-9-11(19)12(20)13(28-9)17-5-4-10(15)16-14(17)21/h4-5,9,11-13,19-20H,6-8H2,1-3H3,(H3-,15,16,21,22,23,24,25)/t9-,11-,12+,13+/m0/s1

> <INCHI_KEY>
InChIKey=RZZPDXZPRHQOCG-FTYKPCCVSA-N

> <SMILES>
C[N+](C)(C)CCO[P@]([O-])(=O)O[P@@](O)(=O)OC[C@@H]1O[C@H]([C@H](O)[C@H]1O)N1C=CC(N)=NC1=O

> <JCHEM_ACCEPTOR_COUNT>
10

> <JCHEM_DONOR_COUNT>
4

> <JCHEM_ACIDIC_PKA>
1.85

> <JCHEM_BASIC_PKA>
-0.52

> <JCHEM_PHYSIOLOGICAL_CHARGE>
-1

> <ALOGPS_LOGP>
-1.4

> <JCHEM_LOGP>
-6.2

> <ALOGPS_LOGS>
-1.8

> <JCHEM_POLARIZABILITY>
43.06

> <JCHEM_POLAR_SURFACE_AREA>
213.5

> <JCHEM_REFRACTIVITY>
113.58

> <JCHEM_ROTATABLE_BOND_COUNT>
10

> <ALOGPS_SOLUBILITY>
7.99e+00 g/l __ 

$$$$
