4820
  Mrv0541 02231217562D          

 22 23  0  0  0  0            999 V2000
    5.2223    0.4125    0.0000 O   0  0  0  0  0  0  0  0  0  0  0  0
    1.6500   -1.6500    0.0000 O   0  0  0  0  0  0  0  0  0  0  0  0
    4.5079    1.6500    0.0000 N   0  0  0  0  0  0  0  0  0  0  0  0
    3.0790   -0.8250    0.0000 N   0  0  0  0  0  0  0  0  0  0  0  0
    3.0790   -1.6500    0.0000 N   0  0  0  0  0  0  0  0  0  0  0  0
    2.3644   -4.5375    0.0000 N   0  0  0  0  0  0  0  0  0  0  0  0
    3.7934    0.4125    0.0000 C   0  0  0  0  0  0  0  0  0  0  0  0
    3.7934   -0.4125    0.0000 C   0  0  0  0  0  0  0  0  0  0  0  0
    5.2223    2.0625    0.0000 C   0  0  0  0  0  0  0  0  0  0  0  0
    4.5079    0.8250    0.0000 C   0  0  0  0  0  0  0  0  0  0  0  0
    5.2223    2.8875    0.0000 C   0  0  0  0  0  0  0  0  0  0  0  0
    4.5079    3.3000    0.0000 C   0  0  0  0  0  0  0  0  0  0  0  0
    5.9369    3.3000    0.0000 C   0  0  0  0  0  0  0  0  0  0  0  0
    4.5079    4.1250    0.0000 C   0  0  0  0  0  0  0  0  0  0  0  0
    5.9369    4.1250    0.0000 C   0  0  0  0  0  0  0  0  0  0  0  0
    2.3644   -2.0625    0.0000 C   0  0  0  0  0  0  0  0  0  0  0  0
    5.2223    4.5375    0.0000 C   0  0  0  0  0  0  0  0  0  0  0  0
    2.3644   -2.8875    0.0000 C   0  0  0  0  0  0  0  0  0  0  0  0
    3.0790   -3.3000    0.0000 C   0  0  0  0  0  0  0  0  0  0  0  0
    1.6500   -3.3000    0.0000 C   0  0  0  0  0  0  0  0  0  0  0  0
    3.0790   -4.1250    0.0000 C   0  0  0  0  0  0  0  0  0  0  0  0
    1.6500   -4.1250    0.0000 C   0  0  0  0  0  0  0  0  0  0  0  0
  1 10  2  0  0  0  0
  2 16  2  0  0  0  0
  3  9  1  0  0  0  0
  3 10  1  0  0  0  0
  4  5  1  0  0  0  0
  4  8  1  0  0  0  0
  5 16  1  0  0  0  0
  6 21  2  0  0  0  0
  6 22  1  0  0  0  0
  7  8  1  0  0  0  0
  7 10  1  0  0  0  0
  9 11  1  0  0  0  0
 11 12  2  0  0  0  0
 11 13  1  0  0  0  0
 12 14  1  0  0  0  0
 13 15  2  0  0  0  0
 14 17  2  0  0  0  0
 15 17  1  0  0  0  0
 16 18  1  0  0  0  0
 18 19  2  0  0  0  0
 18 20  1  0  0  0  0
 19 21  1  0  0  0  0
 20 22  2  0  0  0  0
M  END
> <DRUGBANK_ID>
DB04820

> <DRUG_GROUPS>
withdrawn

> <GENERIC_NAME>
Nialamide

> <SYNONYMS>
Nialamida; Nialamidum

> <BRANDS>


> <CHEMICAL_FORMULA>
C16H18N4O2

> <MOLECULAR_WEIGHT>
298.3397

> <EXACT_MASS>
298.14297584

> <IUPAC_NAME>
N-benzyl-3-(pyridin-4-ylformohydrazido)propanamide

> <IUPAC_TRADITIONAL_NAME>
nialamide

> <INCHI_IDENTIFIER>
InChI=1S/C16H18N4O2/c21-15(18-12-13-4-2-1-3-5-13)8-11-19-20-16(22)14-6-9-17-10-7-14/h1-7,9-10,19H,8,11-12H2,(H,18,21)(H,20,22)

> <INCHI_KEY>
InChIKey=NOIIUHRQUVNIDD-UHFFFAOYSA-N

> <SMILES>
O=C(CCNNC(=O)C1=CC=NC=C1)NCC1=CC=CC=C1

> <JCHEM_ACCEPTOR_COUNT>
4

> <JCHEM_DONOR_COUNT>
3

> <JCHEM_ACIDIC_PKA>
13.65

> <JCHEM_BASIC_PKA>
3.41

> <JCHEM_PHYSIOLOGICAL_CHARGE>
0

> <ALOGPS_LOGP>
0.65

> <JCHEM_LOGP>
0.39

> <ALOGPS_LOGS>
-3.5

> <JCHEM_POLARIZABILITY>
32.07

> <JCHEM_POLAR_SURFACE_AREA>
83.12

> <JCHEM_REFRACTIVITY>
93.91

> <JCHEM_ROTATABLE_BOND_COUNT>
7

> <ALOGPS_SOLUBILITY>
8.73e-02 g/l __ 

$$$$
