
  Mrv0541 02231217422D          

 41 46  0  0  1  0            999 V2000
    3.0644  -10.1557    0.0000 C   0  0  0  0  0  0  0  0  0  0  0  0
    2.3108   -9.8202    0.0000 O   0  0  0  0  0  0  0  0  0  0  0  0
    2.2245   -8.9997    0.0000 C   0  0  0  0  0  0  0  0  0  0  0  0
    1.4708   -8.6641    0.0000 C   0  0  0  0  0  0  0  0  0  0  0  0
    1.3846   -7.8436    0.0000 C   0  0  0  0  0  0  0  0  0  0  0  0
    2.0520   -7.3587    0.0000 C   0  0  0  0  0  0  0  0  0  0  0  0
    2.8057   -7.6943    0.0000 C   0  0  0  0  0  0  0  0  0  0  0  0
    3.4732   -7.2093    0.0000 O   0  0  0  0  0  0  0  0  0  0  0  0
    4.2268   -7.5449    0.0000 C   0  0  0  0  0  0  0  0  0  0  0  0
    2.8920   -8.5147    0.0000 C   0  0  0  0  0  0  0  0  0  0  0  0
    0.6309   -7.5081    0.0000 C   0  0  0  0  0  0  0  0  0  0  0  0
   -0.0365   -7.9930    0.0000 O   0  0  0  0  0  0  0  0  0  0  0  0
    0.5447   -6.6876    0.0000 N   0  0  0  0  0  0  0  0  0  0  0  0
   -0.2090   -6.3520    0.0000 C   0  0  2  0  0  0  0  0  0  0  0  0
   -0.9234   -6.7645    0.0000 C   0  0  1  0  0  0  0  0  0  0  0  0
   -1.0097   -7.5850    0.0000 O   0  0  0  0  0  0  0  0  0  0  0  0
   -1.5365   -6.2125    0.0000 C   0  0  2  0  0  0  0  0  0  0  0  0
   -2.3435   -6.3840    0.0000 C   0  0  0  0  0  0  0  0  0  0  0  0
   -2.8955   -5.7709    0.0000 O   0  0  0  0  0  0  0  0  0  0  0  0
   -1.2010   -5.4588    0.0000 O   0  0  0  0  0  0  0  0  0  0  0  0
   -0.3805   -5.5451    0.0000 C   0  0  1  0  0  0  0  0  0  0  0  0
    0.1715   -4.9320    0.0000 N   0  0  0  0  0  0  0  0  0  0  0  0
    0.9920   -5.0182    0.0000 C   0  0  0  0  0  0  0  0  0  0  0  0
    1.3276   -4.2645    0.0000 N   0  0  0  0  0  0  0  0  0  0  0  0
    0.7145   -3.7125    0.0000 C   0  0  0  0  0  0  0  0  0  0  0  0
    0.0000   -4.1250    0.0000 C   0  0  0  0  0  0  0  0  0  0  0  0
   -0.7145   -3.7125    0.0000 N   0  0  0  0  0  0  0  0  0  0  0  0
   -0.7145   -2.8875    0.0000 C   0  0  0  0  0  0  0  0  0  0  0  0
    0.0000   -2.4750    0.0000 N   0  0  0  0  0  0  0  0  0  0  0  0
    0.7145   -2.8875    0.0000 C   0  0  0  0  0  0  0  0  0  0  0  0
    1.4289   -2.4750    0.0000 N   0  0  0  0  0  0  0  0  0  0  0  0
    1.4289   -1.6500    0.0000 C   0  0  2  0  0  0  0  0  0  0  0  0
    0.7145   -1.2375    0.0000 C   0  0  0  0  0  0  0  0  0  0  0  0
    0.7145   -0.4125    0.0000 C   0  0  0  0  0  0  0  0  0  0  0  0
    1.4289    0.0000    0.0000 C   0  0  0  0  0  0  0  0  0  0  0  0
    2.1434   -0.4125    0.0000 C   0  0  0  0  0  0  0  0  0  0  0  0
    2.8579    0.0000    0.0000 C   0  0  0  0  0  0  0  0  0  0  0  0
    3.5724   -0.4125    0.0000 C   0  0  0  0  0  0  0  0  0  0  0  0
    3.5724   -1.2375    0.0000 C   0  0  0  0  0  0  0  0  0  0  0  0
    2.8579   -1.6500    0.0000 C   0  0  0  0  0  0  0  0  0  0  0  0
    2.1434   -1.2375    0.0000 C   0  0  0  0  0  0  0  0  0  0  0  0
  1  2  1  0  0  0  0
  2  3  1  0  0  0  0
  3  4  2  0  0  0  0
  4  5  1  0  0  0  0
  5  6  2  0  0  0  0
  6  7  1  0  0  0  0
  7  8  1  0  0  0  0
  8  9  1  0  0  0  0
  7 10  2  0  0  0  0
  3 10  1  0  0  0  0
  5 11  1  0  0  0  0
 11 12  2  0  0  0  0
 11 13  1  0  0  0  0
 14 13  1  6  0  0  0
 14 15  1  0  0  0  0
 15 16  1  1  0  0  0
 15 17  1  0  0  0  0
 17 18  1  6  0  0  0
 18 19  1  0  0  0  0
 17 20  1  0  0  0  0
 20 21  1  0  0  0  0
 14 21  1  0  0  0  0
 21 22  1  1  0  0  0
 22 23  1  0  0  0  0
 23 24  2  0  0  0  0
 24 25  1  0  0  0  0
 25 26  2  0  0  0  0
 22 26  1  0  0  0  0
 26 27  1  0  0  0  0
 27 28  2  0  0  0  0
 28 29  1  0  0  0  0
 29 30  2  0  0  0  0
 25 30  1  0  0  0  0
 30 31  1  0  0  0  0
 32 31  1  6  0  0  0
 32 33  1  0  0  0  0
 33 34  1  0  0  0  0
 34 35  1  0  0  0  0
 35 36  1  0  0  0  0
 36 37  2  0  0  0  0
 37 38  1  0  0  0  0
 38 39  2  0  0  0  0
 39 40  1  0  0  0  0
 40 41  2  0  0  0  0
 32 41  1  0  0  0  0
 36 41  1  0  0  0  0
M  END
> <DRUGBANK_ID>
DB04477

> <DRUG_GROUPS>
experimental

> <GENERIC_NAME>
N-1,2,3,4-Tetrahydronaphth-1-Yl-2'-[3,5-Dimethoxybenzamido]-2'-Deoxy-Adenosine

> <CHEMICAL_FORMULA>
C29H32N6O6

> <MOLECULAR_WEIGHT>
560.601

> <EXACT_MASS>
560.238332786

> <IUPAC_NAME>
N-[(2R,3R,4R,5S)-4-hydroxy-5-(hydroxymethyl)-2-(6-{[(1R)-1,2,3,4-tetrahydronaphthalen-1-yl]amino}-9H-purin-9-yl)oxolan-3-yl]-3,5-dimethoxybenzamide

> <IUPAC_TRADITIONAL_NAME>
N-[(2R,3R,4R,5S)-4-hydroxy-5-(hydroxymethyl)-2-{6-[(1R)-1,2,3,4-tetrahydronaphthalen-1-ylamino]purin-9-yl}oxolan-3-yl]-3,5-dimethoxybenzamide

> <INCHI_IDENTIFIER>
InChI=1S/C29H32N6O6/c1-39-18-10-17(11-19(12-18)40-2)28(38)34-23-25(37)22(13-36)41-29(23)35-15-32-24-26(30-14-31-27(24)35)33-21-9-5-7-16-6-3-4-8-20(16)21/h3-4,6,8,10-12,14-15,21-23,25,29,36-37H,5,7,9,13H2,1-2H3,(H,34,38)(H,30,31,33)/t21-,22+,23-,25+,29-/m1/s1

> <INCHI_KEY>
InChIKey=FDZQGEIYGFPMOB-USBJVFBQSA-N

> <SMILES>
COC1=CC(=CC(OC)=C1)C(=O)N[C@@H]1[C@@H](O)[C@H](CO)O[C@H]1N1C=NC2=C1N=CN=C2N[C@@H]1CCCC2=CC=CC=C12

> <JCHEM_ACCEPTOR_COUNT>
10

> <JCHEM_DONOR_COUNT>
4

> <JCHEM_ACIDIC_PKA>
13.3

> <JCHEM_BASIC_PKA>
4.83

> <JCHEM_PHYSIOLOGICAL_CHARGE>
0

> <ALOGPS_LOGP>
2.42

> <JCHEM_LOGP>
2.17

> <ALOGPS_LOGS>
-4.1

> <JCHEM_POLARIZABILITY>
59.01

> <JCHEM_POLAR_SURFACE_AREA>
152.88

> <JCHEM_REFRACTIVITY>
150.18

> <JCHEM_ROTATABLE_BOND_COUNT>
8

> <ALOGPS_SOLUBILITY>
4.44e-02 g/l __ 

$$$$
