
  Mrv0541 02231217582D          

 32 34  0  0  1  0            999 V2000
    5.3878   -2.2471    0.0000 O   0  0  0  0  0  0  0  0  0  0  0  0
    5.5708   -5.4217    0.0000 O   0  0  0  0  0  0  0  0  0  0  0  0
    2.4705   -6.0029    0.0000 O   0  0  0  0  0  0  0  0  0  0  0  0
    2.6199   -4.5817    0.0000 O   0  0  0  0  0  0  0  0  0  0  0  0
    6.8168    5.1779    0.0000 O   0  0  0  0  0  0  0  0  0  0  0  0
    5.3878    5.1779    0.0000 O   0  0  0  0  0  0  0  0  0  0  0  0
    5.3407   -3.9696    0.0000 N   0  0  0  0  0  0  0  0  0  0  0  0
    4.6733    3.9404    0.0000 N   0  0  0  0  0  0  0  0  0  0  0  0
    6.1023    3.9404    0.0000 N   0  0  0  0  0  0  0  0  0  0  0  0
    4.2608   -4.7543    0.0000 C   0  0  2  0  0  0  0  0  0  0  0  0
    4.6733   -3.4847    0.0000 C   0  0  1  0  0  0  0  0  0  0  0  0
    4.0059   -3.9696    0.0000 C   0  0  0  0  0  0  0  0  0  0  0  0
    5.0858   -4.7543    0.0000 C   0  0  0  0  0  0  0  0  0  0  0  0
    3.7759   -5.4217    0.0000 C   0  0  0  0  0  0  0  0  0  0  0  0
    4.6733   -2.6596    0.0000 C   0  0  0  0  0  0  0  0  0  0  0  0
    2.9554   -5.3355    0.0000 C   0  0  0  0  0  0  0  0  0  0  0  0
    5.3878   -1.4221    0.0000 C   0  0  0  0  0  0  0  0  0  0  0  0
    4.6733   -1.0096    0.0000 C   0  0  0  0  0  0  0  0  0  0  0  0
    6.1023   -1.0096    0.0000 C   0  0  0  0  0  0  0  0  0  0  0  0
    5.3878    0.2279    0.0000 C   0  0  0  0  0  0  0  0  0  0  0  0
    4.6733   -0.1846    0.0000 C   0  0  0  0  0  0  0  0  0  0  0  0
    6.1023   -0.1846    0.0000 C   0  0  0  0  0  0  0  0  0  0  0  0
    1.6500   -5.9166    0.0000 C   0  0  0  0  0  0  0  0  0  0  0  0
    5.3878    1.0529    0.0000 C   0  0  0  0  0  0  0  0  0  0  0  0
    4.6733    1.4654    0.0000 C   0  0  0  0  0  0  0  0  0  0  0  0
    6.1023    1.4654    0.0000 C   0  0  0  0  0  0  0  0  0  0  0  0
    5.3878    2.7029    0.0000 C   0  0  0  0  0  0  0  0  0  0  0  0
    4.6733    2.2904    0.0000 C   0  0  0  0  0  0  0  0  0  0  0  0
    6.1023    2.2904    0.0000 C   0  0  0  0  0  0  0  0  0  0  0  0
    5.3878    3.5279    0.0000 C   0  0  0  0  0  0  0  0  0  0  0  0
    6.1023    4.7654    0.0000 C   0  0  0  0  0  0  0  0  0  0  0  0
    6.8168    6.0029    0.0000 C   0  0  0  0  0  0  0  0  0  0  0  0
  1 15  1  0  0  0  0
  1 17  1  0  0  0  0
  2 13  2  0  0  0  0
  3 16  1  0  0  0  0
  3 23  1  0  0  0  0
  4 16  2  0  0  0  0
  5 31  1  0  0  0  0
  5 32  1  0  0  0  0
  6 31  2  0  0  0  0
  7 11  1  0  0  0  0
  7 13  1  0  0  0  0
  8 30  1  0  0  0  0
  9 30  2  0  0  0  0
  9 31  1  0  0  0  0
 10 12  1  0  0  0  0
 10 13  1  0  0  0  0
 10 14  1  6  0  0  0
 11 12  1  0  0  0  0
 11 15  1  1  0  0  0
 14 16  1  0  0  0  0
 17 18  2  0  0  0  0
 17 19  1  0  0  0  0
 18 21  1  0  0  0  0
 19 22  2  0  0  0  0
 20 21  2  0  0  0  0
 20 22  1  0  0  0  0
 20 24  1  0  0  0  0
 24 25  2  0  0  0  0
 24 26  1  0  0  0  0
 25 28  1  0  0  0  0
 26 29  2  0  0  0  0
 27 28  2  0  0  0  0
 27 29  1  0  0  0  0
 27 30  1  0  0  0  0
M  END
> <DRUGBANK_ID>
DB04863

> <DRUG_GROUPS>
investigational

> <GENERIC_NAME>
Lefradafiban

> <CHEMICAL_FORMULA>
C23H25N3O6

> <MOLECULAR_WEIGHT>
439.4611

> <EXACT_MASS>
439.174335547

> <IUPAC_NAME>
methyl 2-[(3S,5S)-5-(4-{4-[(1Z)-amino[(methoxycarbonyl)imino]methyl]phenyl}phenoxymethyl)-2-oxopyrrolidin-3-yl]acetate

> <IUPAC_TRADITIONAL_NAME>
methyl 2-[(3S,5S)-5-(4-{4-[(1Z)-amino[(methoxycarbonyl)imino]methyl]phenyl}phenoxymethyl)-2-oxopyrrolidin-3-yl]acetate

> <INCHI_IDENTIFIER>
InChI=1S/C23H25N3O6/c1-30-20(27)12-17-11-18(25-22(17)28)13-32-19-9-7-15(8-10-19)14-3-5-16(6-4-14)21(24)26-23(29)31-2/h3-10,17-18H,11-13H2,1-2H3,(H,25,28)(H2,24,26,29)/t17-,18-/m0/s1

> <INCHI_KEY>
InChIKey=PGCFXITVMNNKON-ROUUACIJSA-N

> <SMILES>
COC(=O)C[C@@H]1C[C@@H](COC2=CC=C(C=C2)C2=CC=C(C=C2)C(\N)=N\C(=O)OC)NC1=O

> <JCHEM_ACCEPTOR_COUNT>
6

> <JCHEM_DONOR_COUNT>
2

> <JCHEM_ACIDIC_PKA>
14

> <JCHEM_BASIC_PKA>
0.71

> <JCHEM_PHYSIOLOGICAL_CHARGE>
0

> <ALOGPS_LOGP>
2.57

> <JCHEM_LOGP>
1.66

> <ALOGPS_LOGS>
-4.7

> <JCHEM_POLARIZABILITY>
47.13

> <JCHEM_POLAR_SURFACE_AREA>
129.31

> <JCHEM_REFRACTIVITY>
115.47

> <JCHEM_ROTATABLE_BOND_COUNT>
9

> <ALOGPS_SOLUBILITY>
8.80e-03 g/l __ 

$$$$
