
  Mrv0541 02231217342D          

 42 47  0  0  1  0            999 V2000
   -4.7534    3.5889    0.0000 O   0  0  0  0  0  0  0  0  0  0  0  0
   -4.3409    2.8744    0.0000 P   0  0  0  0  0  0  0  0  0  0  0  0
   -5.0554    2.4619    0.0000 O   0  0  0  0  0  0  0  0  0  0  0  0
   -3.6265    3.2869    0.0000 O   0  0  0  0  0  0  0  0  0  0  0  0
   -3.9284    2.1599    0.0000 C   0  0  0  0  0  0  0  0  0  0  0  0
   -4.6429    1.7474    0.0000 F   0  0  0  0  0  0  0  0  0  0  0  0
   -3.2140    2.5724    0.0000 F   0  0  0  0  0  0  0  0  0  0  0  0
   -3.5159    1.4455    0.0000 C   0  0  0  0  0  0  0  0  0  0  0  0
   -2.6909    1.4455    0.0000 C   0  0  0  0  0  0  0  0  0  0  0  0
   -2.2784    0.7310    0.0000 C   0  0  0  0  0  0  0  0  0  0  0  0
   -2.6909    0.0165    0.0000 C   0  0  0  0  0  0  0  0  0  0  0  0
   -2.2784   -0.6979    0.0000 C   0  0  0  0  0  0  0  0  0  0  0  0
   -1.4534   -0.6979    0.0000 C   0  0  2  0  0  0  0  0  0  0  0  0
   -1.4534    0.1271    0.0000 C   0  0  0  0  0  0  0  0  0  0  0  0
   -0.7390    0.5396    0.0000 C   0  0  0  0  0  0  0  0  0  0  0  0
   -0.7390    1.3646    0.0000 C   0  0  0  0  0  0  0  0  0  0  0  0
   -0.0245    1.7771    0.0000 C   0  0  0  0  0  0  0  0  0  0  0  0
   -0.0245    2.6021    0.0000 C   0  0  0  0  0  0  0  0  0  0  0  0
    0.6900    3.0146    0.0000 C   0  0  0  0  0  0  0  0  0  0  0  0
    1.4045    2.6021    0.0000 C   0  0  0  0  0  0  0  0  0  0  0  0
    1.4045    1.7771    0.0000 C   0  0  0  0  0  0  0  0  0  0  0  0
    0.6900    1.3646    0.0000 C   0  0  0  0  0  0  0  0  0  0  0  0
   -1.4534   -1.5229    0.0000 N   0  0  0  0  0  0  0  0  0  0  0  0
   -0.7860   -2.0079    0.0000 N   0  0  0  0  0  0  0  0  0  0  0  0
   -1.0409   -2.7925    0.0000 N   0  0  0  0  0  0  0  0  0  0  0  0
   -1.8659   -2.7925    0.0000 C   0  0  0  0  0  0  0  0  0  0  0  0
   -2.1209   -2.0079    0.0000 C   0  0  0  0  0  0  0  0  0  0  0  0
   -2.9278   -1.8363    0.0000 C   0  0  0  0  0  0  0  0  0  0  0  0
   -3.4799   -2.4494    0.0000 C   0  0  0  0  0  0  0  0  0  0  0  0
   -3.2249   -3.2341    0.0000 C   0  0  0  0  0  0  0  0  0  0  0  0
   -2.4180   -3.4056    0.0000 C   0  0  0  0  0  0  0  0  0  0  0  0
   -0.6284   -0.6979    0.0000 C   0  0  0  0  0  0  0  0  0  0  0  0
   -0.1435   -1.3654    0.0000 N   0  0  0  0  0  0  0  0  0  0  0  0
    0.6411   -1.1104    0.0000 C   0  0  0  0  0  0  0  0  0  0  0  0
    0.6411   -0.2854    0.0000 C   0  0  0  0  0  0  0  0  0  0  0  0
   -0.1435   -0.0305    0.0000 S   0  0  0  0  0  0  0  0  0  0  0  0
    1.3556    0.1271    0.0000 C   0  0  0  0  0  0  0  0  0  0  0  0
    2.0701   -0.2854    0.0000 C   0  0  0  0  0  0  0  0  0  0  0  0
    2.0701   -1.1104    0.0000 C   0  0  0  0  0  0  0  0  0  0  0  0
    1.3556   -1.5229    0.0000 C   0  0  0  0  0  0  0  0  0  0  0  0
   -3.5159    0.0165    0.0000 C   0  0  0  0  0  0  0  0  0  0  0  0
   -3.9284    0.7310    0.0000 C   0  0  0  0  0  0  0  0  0  0  0  0
  1  2  1  0  0  0  0
  2  3  1  0  0  0  0
  2  4  2  0  0  0  0
  2  5  1  0  0  0  0
  5  6  1  0  0  0  0
  5  7  1  0  0  0  0
  5  8  1  0  0  0  0
  8  9  2  0  0  0  0
  9 10  1  0  0  0  0
 10 11  2  0  0  0  0
 11 12  1  0  0  0  0
 12 13  1  0  0  0  0
 13 14  1  0  0  0  0
 14 15  1  0  0  0  0
 15 16  2  0  0  0  0
 16 17  1  0  0  0  0
 17 18  2  0  0  0  0
 18 19  1  0  0  0  0
 19 20  2  0  0  0  0
 20 21  1  0  0  0  0
 21 22  2  0  0  0  0
 17 22  1  0  0  0  0
 13 23  1  6  0  0  0
 23 24  1  0  0  0  0
 24 25  2  0  0  0  0
 25 26  1  0  0  0  0
 26 27  2  0  0  0  0
 23 27  1  0  0  0  0
 27 28  1  0  0  0  0
 28 29  2  0  0  0  0
 29 30  1  0  0  0  0
 30 31  2  0  0  0  0
 26 31  1  0  0  0  0
 13 32  1  1  0  0  0
 32 33  2  0  0  0  0
 33 34  1  0  0  0  0
 34 35  2  0  0  0  0
 35 36  1  0  0  0  0
 32 36  1  0  0  0  0
 35 37  1  0  0  0  0
 37 38  2  0  0  0  0
 38 39  1  0  0  0  0
 39 40  2  0  0  0  0
 34 40  1  0  0  0  0
 11 41  1  0  0  0  0
 41 42  2  0  0  0  0
  8 42  1  0  0  0  0
M  END
> <DRUGBANK_ID>
DB04285

> <DRUG_GROUPS>
experimental

> <GENERIC_NAME>
{4-[(2s,4e)-2-(1,3-Benzothiazol-2-Yl)-2-(1h-1,2,3-Benzotriazol-1-Yl)-5-Phenylpent-4-Enyl]Phenyl}(Difluoro)Methylphosphonic Acid

> <CHEMICAL_FORMULA>
C31H25F2N4O3PS

> <MOLECULAR_WEIGHT>
602.591

> <EXACT_MASS>
602.135304298

> <IUPAC_NAME>
({4-[(2S,4E)-2-(1,3-benzothiazol-2-yl)-2-(1H-1,2,3-benzotriazol-1-yl)-5-phenylpent-4-en-1-yl]phenyl}difluoromethyl)phosphonic acid

> <IUPAC_TRADITIONAL_NAME>
{4-[(2S,4E)-2-(1,3-benzothiazol-2-yl)-2-(1,2,3-benzotriazol-1-yl)-5-phenylpent-4-en-1-yl]phenyl}difluoromethylphosphonic acid

> <INCHI_IDENTIFIER>
InChI=1S/C31H25F2N4O3PS/c32-31(33,41(38,39)40)24-18-16-23(17-19-24)21-30(20-8-11-22-9-2-1-3-10-22,29-34-26-13-5-7-15-28(26)42-29)37-27-14-6-4-12-25(27)35-36-37/h1-19H,20-21H2,(H2,38,39,40)/b11-8+/t30-/m0/s1

> <INCHI_KEY>
InChIKey=GBLDYRVJENYQNH-GHGCAVAYSA-N

> <SMILES>
C(=C/C1=CC=CC=C1)\C[C@](CC1=CC=C(C=C1)C(F)(F)P(O)(O)=O)(C1=NC2=C(C=CC=C2)S1)N1N=NC2=C1C=CC=C2

> <JCHEM_ACCEPTOR_COUNT>
6

> <JCHEM_DONOR_COUNT>
2

> <JCHEM_ACIDIC_PKA>
0.72

> <JCHEM_BASIC_PKA>
2.02

> <JCHEM_PHYSIOLOGICAL_CHARGE>
-1

> <ALOGPS_LOGP>
5.46

> <JCHEM_LOGP>
5.84

> <ALOGPS_LOGS>
-5.2

> <JCHEM_POLARIZABILITY>
59.59

> <JCHEM_POLAR_SURFACE_AREA>
101.13

> <JCHEM_REFRACTIVITY>
169.77

> <JCHEM_ROTATABLE_BOND_COUNT>
9

> <ALOGPS_SOLUBILITY>
4.10e-03 g/l __ 

$$$$
