
  Mrv0541 02231217362D          

 10  9  0  0  0  0            999 V2000
    2.2836    2.1434    0.0000 N   0  0  0  0  0  0  0  0  0  0  0  0
    2.9980    2.5559    0.0000 C   0  0  0  0  0  0  0  0  0  0  0  0
    3.7125    2.1434    0.0000 C   0  0  0  0  0  0  0  0  0  0  0  0
    4.4270    2.5559    0.0000 C   0  0  0  0  0  0  0  0  0  0  0  0
    5.1414    2.1434    0.0000 C   0  0  0  0  0  0  0  0  0  0  0  0
    5.8559    2.5559    0.0000 C   0  0  0  0  0  0  0  0  0  0  0  0
    6.5704    2.1434    0.0000 C   0  0  0  0  0  0  0  0  0  0  0  0
    7.2849    2.5559    0.0000 C   0  0  0  0  0  0  0  0  0  0  0  0
    7.9993    2.1434    0.0000 C   0  0  0  0  0  0  0  0  0  0  0  0
    8.7138    2.5559    0.0000 N   0  0  0  0  0  0  0  0  0  0  0  0
  1  2  1  0  0  0  0
  2  3  1  0  0  0  0
  3  4  1  0  0  0  0
  4  5  1  0  0  0  0
  5  6  1  0  0  0  0
  6  7  1  0  0  0  0
  7  8  1  0  0  0  0
  8  9  1  0  0  0  0
  9 10  1  0  0  0  0
M  END
> <DRUGBANK_ID>
DB04333

> <DRUG_GROUPS>
experimental

> <GENERIC_NAME>
Octamethylenediamine

> <SYNONYMS>


> <CHEMICAL_FORMULA>
C8H20N2

> <MOLECULAR_WEIGHT>
144.2578

> <EXACT_MASS>
144.16264865

> <IUPAC_NAME>
octane-1,8-diamine

> <IUPAC_TRADITIONAL_NAME>
octamethylenediamine

> <INCHI_IDENTIFIER>
InChI=1S/C8H20N2/c9-7-5-3-1-2-4-6-8-10/h1-10H2

> <INCHI_KEY>
InChIKey=PWGJDPKCLMLPJW-UHFFFAOYSA-N

> <SMILES>
NCCCCCCCCN

> <JCHEM_ACCEPTOR_COUNT>
2

> <JCHEM_DONOR_COUNT>
2

> <JCHEM_BASIC_PKA>
10.51

> <JCHEM_PHYSIOLOGICAL_CHARGE>
2

> <ALOGPS_LOGP>
1.29

> <JCHEM_LOGP>
0.93

> <ALOGPS_LOGS>
-1.8

> <JCHEM_POLARIZABILITY>
19.35

> <JCHEM_POLAR_SURFACE_AREA>
52.04

> <JCHEM_REFRACTIVITY>
45.78

> <JCHEM_ROTATABLE_BOND_COUNT>
7

> <ALOGPS_SOLUBILITY>
2.43e+00 g/l __ 

$$$$
