
  Mrv0541 02231217392D          

 31 42  0  0  0  0            999 V2000
    0.5487   -0.9075    0.0000 O    0  6  0  0  0  0  0  0  0  0  0  0
    1.0489   -0.2514    0.0000 Mo   0  0  0  0  0  0  0  0  0  0  0  0
    0.2280   -0.1694    0.0000 O    0  6  0  0  0  0  0  0  0  0  0  0
    1.3555   -1.0480    0.0000 O    0  6  0  0  0  0  0  0  0  0  0  0
    2.1935   -0.7806    0.0000 Mo   0  0  0  0  0  0  0  0  0  0  0  0
    1.8377   -1.5250    0.0000 O    0  6  0  0  0  0  0  0  0  0  0  0
    2.4920   -1.5497    0.0000 O    0  6  0  0  0  0  0  0  0  0  0  0
    3.0569   -1.1299    0.0000 O    0  6  0  0  0  0  0  0  0  0  0  0
    3.4571   -0.2934    0.0000 Mo   0  0  0  0  0  0  0  0  0  0  0  0
    3.7728   -1.0556    0.0000 O    0  6  0  0  0  0  0  0  0  0  0  0
    4.2351   -0.5679    0.0000 O    0  6  0  0  0  0  0  0  0  0  0  0
    4.2002    0.1123    0.0000 O    0  6  0  0  0  0  0  0  0  0  0  0
    3.8135    0.8530    0.0000 Mo   0  0  0  0  0  0  0  0  0  0  0  0
    4.6336    0.7630    0.0000 O    0  6  0  0  0  0  0  0  0  0  0  0
    4.3448    1.4841    0.0000 O    0  6  0  0  0  0  0  0  0  0  0  0
    3.5816    1.6575    0.0000 O    0  6  0  0  0  0  0  0  0  0  0  0
    2.7199    1.4930    0.0000 Mo   0  0  0  0  0  0  0  0  0  0  0  0
    3.1160    2.2167    0.0000 O    0  6  0  0  0  0  0  0  0  0  0  0
    2.4135    2.2590    0.0000 O    0  6  0  0  0  0  0  0  0  0  0  0
    1.8605    1.7674    0.0000 O    0  6  0  0  0  0  0  0  0  0  0  0
    1.4213    0.9722    0.0000 Mo   0  0  0  0  0  0  0  0  0  0  0  0
    1.1215    1.7408    0.0000 O    0  6  0  0  0  0  0  0  0  0  0  0
    0.6388    1.2335    0.0000 O    0  6  0  0  0  0  0  0  0  0  0  0
    0.6779    0.5120    0.0000 O    0  6  0  0  0  0  0  0  0  0  0  0
    2.1719    0.9742    0.0000 O    0  6  0  0  0  0  0  0  0  0  0  0
    2.4338    0.2882    0.0000 Mo   0  0  0  0  0  0  0  0  0  0  0  0
    1.8277   -0.4593    0.0000 O    0  6  0  0  0  0  0  0  0  0  0  0
    3.3298    0.1669    0.0000 O    0  6  0  0  0  0  0  0  0  0  0  0
    2.7429   -0.3228    0.0000 O    0  6  0  0  0  0  0  0  0  0  0  0
    1.6977    0.1577    0.0000 O    0  6  1  0  0  0  0  0  0  0  0  0
    3.0889    0.7186    0.0000 O    0  6  1  0  0  0  0  0  0  0  0  0
  1  2  1  0  0  0  0
  2  3  1  0  0  0  0
  2  4  1  0  0  0  0
  4  5  1  0  0  0  0
  5  6  1  0  0  0  0
  5  7  1  0  0  0  0
  5  8  1  0  0  0  0
  8  9  1  0  0  0  0
  9 10  1  0  0  0  0
  9 11  1  0  0  0  0
  9 12  1  0  0  0  0
 12 13  1  0  0  0  0
 13 14  1  0  0  0  0
 13 15  1  0  0  0  0
 13 16  1  0  0  0  0
 16 17  1  0  0  0  0
 17 18  1  0  0  0  0
 17 19  1  0  0  0  0
 17 20  1  0  0  0  0
 20 21  1  0  0  0  0
 21 22  1  0  0  0  0
 21 23  1  0  0  0  0
 21 24  1  0  0  0  0
  2 24  1  0  0  0  0
 21 25  1  0  0  0  0
 17 25  1  0  0  0  0
 25 26  1  0  0  0  0
 26 27  1  0  0  0  0
  2 27  1  0  0  0  0
 26 28  1  0  0  0  0
 13 28  1  0  0  0  0
 26 29  1  0  0  0  0
  5 29  1  0  0  0  0
  9 29  1  0  0  0  0
 30 26  1  1  0  0  0
  2 30  1  0  0  0  0
  5 30  1  0  0  0  0
 21 30  1  0  0  0  0
 31 26  1  1  0  0  0
  9 31  1  0  0  0  0
 13 31  1  0  0  0  0
 17 31  1  0  0  0  0
M  END
> <DRUGBANK_ID>
DB04414

> <DRUG_GROUPS>
experimental

> <GENERIC_NAME>
Heptamolybdate

> <CHEMICAL_FORMULA>
Mo7O24

> <MOLECULAR_WEIGHT>
1055.57

> <EXACT_MASS>
1069.21580585

> <IUPAC_NAME>
dodecakis($l^{3}-oxidanediidyl)dodecacyclo[7.5.1.1^{1,7}.1^{3,5}.1^{3,13}.1^{5,7}.0^{1,4}.0^{1,6}.0^{2,11}.0^{2,13}.0^{6,9}.0^{11,15}]heptamolybdoxane-1,1,1,1,1,1,3,3,3,3,3,3,5,5,5,5,5,5,7,7,7,7,7,7,9,9,9,9,9,9,11,11,11,11,11,11,13,13,13,13,13,13-dotetracontakis(ylium)-2,2,4,4,6,6,8,8,10,10,12,12,14,14,15,15,16,16,17,17,18,18,19,19-tetracosauide

> <IUPAC_TRADITIONAL_NAME>
heptamolybdate

> <INCHI_IDENTIFIER>
InChI=1S/7Mo.24O/q7*+6;24*-2

> <INCHI_KEY>
InChIKey=RAJWDNGOYZCDTL-UHFFFAOYSA-N

> <SMILES>
[O--][Mo+6]123([O--])[O--][Mo+6]45([O--])([O--])[O--][Mo+6]67([O--])([O--])[O--][Mo+6]89([O--])([O--])[O--][Mo+6]%10%11([O--])([O--])[O--][Mo+6]%12([O--])([O--])([O--]1)[O--]%10[Mo+6]([O--]2)([O--]8)([O--]46)([O--]35%12)[O--]79%11

> <JCHEM_ACCEPTOR_COUNT>
0

> <JCHEM_DONOR_COUNT>
0

> <JCHEM_PHYSIOLOGICAL_CHARGE>
-6

> <JCHEM_POLARIZABILITY>
39.15

> <JCHEM_POLAR_SURFACE_AREA>
377.74

> <JCHEM_REFRACTIVITY>
80.58

> <JCHEM_ROTATABLE_BOND_COUNT>
0 __ 

$$$$
