
  Mrv0541 02231217342D          

 27 27  0  0  1  0            999 V2000
   -2.8579   -6.6000    0.0000 O   0  0  0  0  0  0  0  0  0  0  0  0
   -2.8579   -5.7750    0.0000 C   0  0  0  0  0  0  0  0  0  0  0  0
   -2.1434   -5.3625    0.0000 C   0  0  1  0  0  0  0  0  0  0  0  0
   -1.4289   -5.7750    0.0000 O   0  0  0  0  0  0  0  0  0  0  0  0
   -2.1434   -4.5375    0.0000 C   0  0  2  0  0  0  0  0  0  0  0  0
   -2.8579   -4.1250    0.0000 O   0  0  0  0  0  0  0  0  0  0  0  0
   -1.4289   -4.1250    0.0000 C   0  0  1  0  0  0  0  0  0  0  0  0
   -0.7145   -4.5375    0.0000 O   0  0  0  0  0  0  0  0  0  0  0  0
   -1.4289   -3.3000    0.0000 C   0  0  0  0  0  0  0  0  0  0  0  0
   -0.7145   -2.8875    0.0000 N   0  0  0  0  0  0  0  0  0  0  0  0
   -0.7145   -2.0625    0.0000 C   0  0  0  0  0  0  0  0  0  0  0  0
   -1.4289   -1.6500    0.0000 N   0  0  0  0  0  0  0  0  0  0  0  0
   -1.4289   -0.8250    0.0000 C   0  0  0  0  0  0  0  0  0  0  0  0
   -2.1434   -0.4125    0.0000 O   0  0  0  0  0  0  0  0  0  0  0  0
   -0.7145   -0.4125    0.0000 N   0  0  0  0  0  0  0  0  0  0  0  0
    0.0000   -0.8250    0.0000 C   0  0  0  0  0  0  0  0  0  0  0  0
    0.7145   -0.4125    0.0000 O   0  0  0  0  0  0  0  0  0  0  0  0
    0.0000   -1.6500    0.0000 C   0  0  0  0  0  0  0  0  0  0  0  0
    0.7145   -2.0625    0.0000 C   0  0  0  0  0  0  0  0  0  0  0  0
    1.4289   -1.6500    0.0000 C   0  0  0  0  0  0  0  0  0  0  0  0
    2.1434   -2.0625    0.0000 C   0  0  0  0  0  0  0  0  0  0  0  0
    2.8579   -1.6500    0.0000 C   0  0  0  0  0  0  0  0  0  0  0  0
    3.5724   -2.0625    0.0000 C   0  0  0  0  0  0  0  0  0  0  0  0
    4.2868   -1.6500    0.0000 P   0  0  0  0  0  0  0  0  0  0  0  0
    5.0013   -1.2375    0.0000 O   0  0  0  0  0  0  0  0  0  0  0  0
    4.6993   -2.3645    0.0000 O   0  0  0  0  0  0  0  0  0  0  0  0
    3.8743   -0.9355    0.0000 O   0  0  0  0  0  0  0  0  0  0  0  0
  1  2  1  0  0  0  0
  2  3  1  0  0  0  0
  3  4  1  6  0  0  0
  3  5  1  0  0  0  0
  5  6  1  6  0  0  0
  5  7  1  0  0  0  0
  7  8  1  6  0  0  0
  7  9  1  0  0  0  0
  9 10  1  0  0  0  0
 10 11  1  0  0  0  0
 11 12  2  0  0  0  0
 12 13  1  0  0  0  0
 13 14  1  0  0  0  0
 13 15  2  0  0  0  0
 15 16  1  0  0  0  0
 16 17  1  0  0  0  0
 16 18  2  0  0  0  0
 11 18  1  0  0  0  0
 18 19  1  0  0  0  0
 19 20  1  0  0  0  0
 20 21  1  0  0  0  0
 21 22  1  0  0  0  0
 22 23  1  0  0  0  0
 23 24  1  0  0  0  0
 24 25  1  0  0  0  0
 24 26  1  0  0  0  0
 24 27  2  0  0  0  0
M  END
> <DRUGBANK_ID>
DB04266

> <DRUG_GROUPS>
experimental

> <GENERIC_NAME>
5-(6-D-Ribitylamino-2,4-Dihydroxypyrimidin-5-Yl)-1-Pentyl-Phosphonic Acid

> <CHEMICAL_FORMULA>
C14H26N3O9P

> <MOLECULAR_WEIGHT>
411.3447

> <EXACT_MASS>
411.140665957

> <IUPAC_NAME>
[5-(2,4-dihydroxy-6-{[(2S,3R,4R)-2,3,4,5-tetrahydroxypentyl]amino}pyrimidin-5-yl)pentyl]phosphonic acid

> <IUPAC_TRADITIONAL_NAME>
5-(2,4-dihydroxy-6-{[(2S,3R,4R)-2,3,4,5-tetrahydroxypentyl]amino}pyrimidin-5-yl)pentylphosphonic acid

> <INCHI_IDENTIFIER>
InChI=1S/C14H26N3O9P/c18-7-10(20)11(21)9(19)6-15-12-8(13(22)17-14(23)16-12)4-2-1-3-5-27(24,25)26/h9-11,18-21H,1-7H2,(H2,24,25,26)(H3,15,16,17,22,23)/t9-,10+,11+/m0/s1

> <INCHI_KEY>
InChIKey=BMATWAHJJFXMFA-HBNTYKKESA-N

> <SMILES>
OC[C@@H](O)[C@H](O)[C@@H](O)CNC1=NC(O)=NC(O)=C1CCCCCP(O)(O)=O

> <JCHEM_ACCEPTOR_COUNT>
12

> <JCHEM_DONOR_COUNT>
9

> <JCHEM_ACIDIC_PKA>
1.81

> <JCHEM_BASIC_PKA>
-0.27

> <JCHEM_PHYSIOLOGICAL_CHARGE>
-1

> <ALOGPS_LOGP>
-0.85

> <JCHEM_LOGP>
-1.6

> <ALOGPS_LOGS>
-2.1

> <JCHEM_POLARIZABILITY>
39.4

> <JCHEM_POLAR_SURFACE_AREA>
216.72

> <JCHEM_REFRACTIVITY>
96.05

> <JCHEM_ROTATABLE_BOND_COUNT>
12

> <ALOGPS_SOLUBILITY>
3.14e+00 g/l __ 

$$$$
