
  Mrv0541 02231217282D          

 17 18  0  0  1  0            999 V2000
    4.5621    1.8437    0.0000 N   0  0  0  0  0  0  0  0  0  0  0  0
    3.7738    2.0868    0.0000 C   0  0  1  0  0  0  0  0  0  0  0  0
    3.1690    1.5257    0.0000 C   0  0  0  0  0  0  0  0  0  0  0  0
    3.3526    0.7214    0.0000 C   0  0  0  0  0  0  0  0  0  0  0  0
    4.1569    0.5378    0.0000 C   0  0  0  0  0  0  0  0  0  0  0  0
    4.5149   -0.2055    0.0000 C   0  0  0  0  0  0  0  0  0  0  0  0
    4.1569   -0.9488    0.0000 C   0  0  0  0  0  0  0  0  0  0  0  0
    3.3526   -1.1324    0.0000 C   0  0  0  0  0  0  0  0  0  0  0  0
    2.7076   -0.6180    0.0000 C   0  0  0  0  0  0  0  0  0  0  0  0
    2.7076    0.2070    0.0000 C   0  0  0  0  0  0  0  0  0  0  0  0
    1.9230    0.4619    0.0000 C   0  0  0  0  0  0  0  0  0  0  0  0
    1.6680    1.2466    0.0000 O   0  0  0  0  0  0  0  0  0  0  0  0
    1.4380   -0.2055    0.0000 N   0  0  0  0  0  0  0  0  0  0  0  0
    1.9230   -0.8729    0.0000 O   0  0  0  0  0  0  0  0  0  0  0  0
    3.5902    2.8912    0.0000 C   0  0  0  0  0  0  0  0  0  0  0  0
    2.8019    3.1343    0.0000 O   0  0  0  0  0  0  0  0  0  0  0  0
    4.1950    3.4523    0.0000 O   0  0  0  0  0  0  0  0  0  0  0  0
  2  1  1  1  0  0  0
  2  3  1  0  0  0  0
  3  4  1  0  0  0  0
  4  5  2  0  0  0  0
  5  6  1  0  0  0  0
  6  7  1  0  0  0  0
  7  8  1  0  0  0  0
  8  9  1  0  0  0  0
  9 10  2  0  0  0  0
  4 10  1  0  0  0  0
 10 11  1  0  0  0  0
 11 12  2  0  0  0  0
 11 13  1  0  0  0  0
 13 14  1  0  0  0  0
  9 14  1  0  0  0  0
  2 15  1  0  0  0  0
 15 16  1  0  0  0  0
 15 17  2  0  0  0  0
M  END
> <DRUGBANK_ID>
DB04152

> <DRUG_GROUPS>
experimental

> <GENERIC_NAME>
2-Amino-3-(3-Hydroxy-7,8-Dihydro-6h-Cyclohepta[D]-4-Isoxazolyl)Propionic Acid

> <CHEMICAL_FORMULA>
C11H14N2O4

> <MOLECULAR_WEIGHT>
238.2399

> <EXACT_MASS>
238.095356946

> <IUPAC_NAME>
(2S)-2-amino-3-{3-oxo-2H,3H,6H,7H,8H-cyclohepta[d][1,2]oxazol-4-yl}propanoic acid

> <IUPAC_TRADITIONAL_NAME>
(2S)-2-amino-3-{3-oxo-2H,6H,7H,8H-cyclohepta[d][1,2]oxazol-4-yl}propanoic acid

> <INCHI_IDENTIFIER>
InChI=1S/C11H14N2O4/c12-7(11(15)16)5-6-3-1-2-4-8-9(6)10(14)13-17-8/h3,7H,1-2,4-5,12H2,(H,13,14)(H,15,16)/t7-/m0/s1

> <INCHI_KEY>
InChIKey=HJEPOXZLPHUVFE-ZETCQYMHSA-N

> <SMILES>
N[C@@H](CC1=CCCCC2=C1C(=O)NO2)C(O)=O

> <JCHEM_ACCEPTOR_COUNT>
5

> <JCHEM_DONOR_COUNT>
3

> <JCHEM_ACIDIC_PKA>
2.05

> <JCHEM_BASIC_PKA>
9.48

> <JCHEM_PHYSIOLOGICAL_CHARGE>
0

> <ALOGPS_LOGP>
-1.8

> <JCHEM_LOGP>
-2.6

> <ALOGPS_LOGS>
-1.7

> <JCHEM_POLARIZABILITY>
23.33

> <JCHEM_POLAR_SURFACE_AREA>
101.65

> <JCHEM_REFRACTIVITY>
60.59

> <JCHEM_ROTATABLE_BOND_COUNT>
3

> <ALOGPS_SOLUBILITY>
4.36e+00 g/l __ 

$$$$
