
  Mrv0541 02231217462D          

 24 27  0  0  1  0            999 V2000
    1.1566    0.9645    0.0000 S   0  0  0  0  0  0  0  0  0  0  0  0
    7.3549    4.1025    0.0000 O   0  0  0  0  0  0  0  0  0  0  0  0
    1.8694    0.5492    0.0000 O   0  0  0  0  0  0  0  0  0  0  0  0
    0.4438    1.3796    0.0000 O   0  0  0  0  0  0  0  0  0  0  0  0
    1.5719    1.6773    0.0000 O   0  0  0  0  0  0  0  0  0  0  0  0
    0.7415    0.2517    0.0000 O   0  0  0  0  0  0  0  0  0  0  0  0
    6.3181    2.2422    0.0000 C   0  0  2  0  0  0  0  0  0  0  0  0
    6.3181    3.0671    0.0000 C   0  0  2  0  0  0  0  0  0  0  0  0
    5.6038    1.8298    0.0000 C   0  0  1  0  0  0  0  0  0  0  0  0
    4.8893    2.2422    0.0000 C   0  0  2  0  0  0  0  0  0  0  0  0
    5.6038    3.4795    0.0000 C   0  0  0  0  0  0  0  0  0  0  0  0
    7.0986    1.9908    0.0000 C   0  0  0  0  0  0  0  0  0  0  0  0
    4.8893    3.0671    0.0000 C   0  0  0  0  0  0  0  0  0  0  0  0
    5.6170    0.9707    0.0000 C   0  0  0  0  0  0  0  0  0  0  0  0
    7.0986    3.3185    0.0000 C   0  0  0  0  0  0  0  0  0  0  0  0
    7.5801    2.6546    0.0000 C   0  0  0  0  0  0  0  0  0  0  0  0
    6.3181    3.8920    0.0000 C   0  0  0  0  0  0  0  0  0  0  0  0
    4.1387    1.8241    0.0000 C   0  0  0  0  0  0  0  0  0  0  0  0
    4.8762    0.5352    0.0000 C   0  0  0  0  0  0  0  0  0  0  0  0
    4.1321    0.9649    0.0000 C   0  0  0  0  0  0  0  0  0  0  0  0
    3.3742    2.2894    0.0000 C   0  0  0  0  0  0  0  0  0  0  0  0
    3.3605    0.5114    0.0000 C   0  0  0  0  0  0  0  0  0  0  0  0
    2.5922    1.8539    0.0000 C   0  0  0  0  0  0  0  0  0  0  0  0
    2.5854    0.9590    0.0000 C   0  0  0  0  0  0  0  0  0  0  0  0
  1  3  1  0  0  0  0
  1  4  1  0  0  0  0
  1  5  2  0  0  0  0
  1  6  2  0  0  0  0
  2 15  2  0  0  0  0
  3 24  1  0  0  0  0
  7  8  1  0  0  0  0
  7  9  1  0  0  0  0
  7 12  1  1  0  0  0
  8 11  1  0  0  0  0
  8 15  1  0  0  0  0
  8 17  1  1  0  0  0
  9 10  1  0  0  0  0
  9 14  1  6  0  0  0
 10 13  1  0  0  0  0
 10 18  1  1  0  0  0
 11 13  1  0  0  0  0
 12 16  1  0  0  0  0
 14 19  1  0  0  0  0
 15 16  1  0  0  0  0
 18 20  2  0  0  0  0
 18 21  1  0  0  0  0
 19 20  1  0  0  0  0
 20 22  1  0  0  0  0
 21 23  2  0  0  0  0
 22 24  2  0  0  0  0
 23 24  1  0  0  0  0
M  END
> <DRUGBANK_ID>
DB04574

> <DRUG_GROUPS>
approved

> <GENERIC_NAME>
Estropipate

> <SYNONYMS>


> <BRANDS>


> <CHEMICAL_FORMULA>
C18H22O5S

> <MOLECULAR_WEIGHT>
350.429

> <EXACT_MASS>
350.118794504

> <IUPAC_NAME>
[(1S,10R,11S,15S)-15-methyl-14-oxotetracyclo[8.7.0.0^{2,7}.0^{11,15}]heptadeca-2(7),3,5-trien-5-yl]oxidanesulfonic acid

> <IUPAC_TRADITIONAL_NAME>
estrone sulfate

> <INCHI_IDENTIFIER>
InChI=1S/C18H22O5S/c1-18-9-8-14-13-5-3-12(23-24(20,21)22)10-11(13)2-4-15(14)16(18)6-7-17(18)19/h3,5,10,14-16H,2,4,6-9H2,1H3,(H,20,21,22)/t14-,15-,16+,18+/m1/s1

> <INCHI_KEY>
InChIKey=JKKFKPJIXZFSSB-CBZIJGRNSA-N

> <SMILES>
C[C@]12CC[C@H]3[C@@H](CCC4=C3C=CC(OS(O)(=O)=O)=C4)[C@@H]1CCC2=O

> <JCHEM_ACCEPTOR_COUNT>
4

> <JCHEM_DONOR_COUNT>
1

> <JCHEM_ACIDIC_PKA>
-1.7

> <JCHEM_BASIC_PKA>
-7.5

> <JCHEM_PHYSIOLOGICAL_CHARGE>
-1

> <ALOGPS_LOGP>
0.29

> <JCHEM_LOGP>
3.83

> <ALOGPS_LOGS>
-4.8

> <JCHEM_POLARIZABILITY>
36.64

> <JCHEM_POLAR_SURFACE_AREA>
80.67

> <JCHEM_REFRACTIVITY>
89.07

> <JCHEM_ROTATABLE_BOND_COUNT>
2

> <ALOGPS_SOLUBILITY>
5.90e-03 g/l __ 

$$$$
