
  Mrv0541 02231217362D          

 19 21  0  0  1  0            999 V2000
    3.6321    0.6079    0.0000 O   0  0  0  0  0  0  0  0  0  0  0  0
    5.5675   -0.2929    0.0000 O   0  0  0  0  0  0  0  0  0  0  0  0
    5.5706    1.5020    0.0000 O   0  0  0  0  0  0  0  0  0  0  0  0
    4.4177    2.6717    0.0000 O   0  0  0  0  0  0  0  0  0  0  0  0
    2.3645   -3.1584    0.0000 O   0  0  0  0  0  0  0  0  0  0  0  0
    3.8596   -0.8446    0.0000 N   0  0  0  0  0  0  0  0  0  0  0  0
    2.3645   -0.6834    0.0000 N   0  0  0  0  0  0  0  0  0  0  0  0
    3.8596   -2.1724    0.0000 N   0  0  0  0  0  0  0  0  0  0  0  0
    1.6500   -1.9209    0.0000 N   0  0  0  0  0  0  0  0  0  0  0  0
    4.9009    0.1932    0.0000 C   0  0  1  0  0  0  0  0  0  0  0  0
    4.1158   -0.0604    0.0000 C   0  0  1  0  0  0  0  0  0  0  0  0
    4.9024    1.0182    0.0000 C   0  0  1  0  0  0  0  0  0  0  0  0
    4.1182    1.2745    0.0000 C   0  0  1  0  0  0  0  0  0  0  0  0
    3.8646    2.0596    0.0000 C   0  0  0  0  0  0  0  0  0  0  0  0
    3.0790   -1.0959    0.0000 C   0  0  0  0  0  0  0  0  0  0  0  0
    4.3411   -1.5084    0.0000 C   0  0  0  0  0  0  0  0  0  0  0  0
    3.0790   -1.9209    0.0000 C   0  0  0  0  0  0  0  0  0  0  0  0
    2.3645   -2.3334    0.0000 C   0  0  0  0  0  0  0  0  0  0  0  0
    1.6500   -1.0959    0.0000 C   0  0  0  0  0  0  0  0  0  0  0  0
  1 11  1  0  0  0  0
  1 13  1  0  0  0  0
 10  2  1  1  0  0  0
 12  3  1  1  0  0  0
  4 14  1  0  0  0  0
  5 18  2  0  0  0  0
 11  6  1  6  0  0  0
  6 15  1  0  0  0  0
  6 16  1  0  0  0  0
  7 15  1  0  0  0  0
  7 19  1  0  0  0  0
  8 16  2  0  0  0  0
  8 17  1  0  0  0  0
  9 18  1  0  0  0  0
  9 19  2  0  0  0  0
 10 11  1  0  0  0  0
 10 12  1  0  0  0  0
 12 13  1  0  0  0  0
 13 14  1  6  0  0  0
 15 17  2  0  0  0  0
 17 18  1  0  0  0  0
M  END
> <DRUGBANK_ID>
DB04335

> <DRUG_GROUPS>
investigational

> <GENERIC_NAME>
Inosine

> <SYNONYMS>
Hypoxanthosine; Inosina; Inosinum

> <BRANDS>


> <CHEMICAL_FORMULA>
C10H12N4O5

> <MOLECULAR_WEIGHT>
268.2261

> <EXACT_MASS>
268.080769514

> <IUPAC_NAME>
9-[(2R,3R,4S,5R)-3,4-dihydroxy-5-(hydroxymethyl)oxolan-2-yl]-6,9-dihydro-3H-purin-6-one

> <IUPAC_TRADITIONAL_NAME>
inosine

> <INCHI_IDENTIFIER>
InChI=1S/C10H12N4O5/c15-1-4-6(16)7(17)10(19-4)14-3-13-5-8(14)11-2-12-9(5)18/h2-4,6-7,10,15-17H,1H2,(H,11,12,18)/t4-,6-,7-,10-/m1/s1

> <INCHI_KEY>
InChIKey=UGQMRVRMYYASKQ-KQYNXXCUSA-N

> <SMILES>
OC[C@H]1O[C@H]([C@H](O)[C@@H]1O)N1C=NC2=C1NC=NC2=O

> <JCHEM_ACCEPTOR_COUNT>
8

> <JCHEM_DONOR_COUNT>
4

> <JCHEM_ACIDIC_PKA>
6.94

> <JCHEM_BASIC_PKA>
2.74

> <JCHEM_PHYSIOLOGICAL_CHARGE>
-1

> <ALOGPS_LOGP>
-1.7

> <JCHEM_LOGP>
-2

> <ALOGPS_LOGS>
-1.3

> <JCHEM_POLARIZABILITY>
24.6

> <JCHEM_POLAR_SURFACE_AREA>
129.2

> <JCHEM_REFRACTIVITY>
60.9

> <JCHEM_ROTATABLE_BOND_COUNT>
2

> <ALOGPS_SOLUBILITY>
1.43e+01 g/l __ 

$$$$
