
  Mrv0541 02231217502D          

 15 14  0  0  0  0            999 V2000
    6.7105    4.6993    0.0000 N   0  0  0  0  0  0  0  0  0  0  0  0
    7.4250    4.2868    0.0000 C   0  0  0  0  0  0  0  0  0  0  0  0
    8.1395    4.6993    0.0000 C   0  0  0  0  0  0  0  0  0  0  0  0
    8.8539    4.2868    0.0000 C   0  0  0  0  0  0  0  0  0  0  0  0
    9.5684    4.6993    0.0000 C   0  0  0  0  0  0  0  0  0  0  0  0
   10.2829    4.2868    0.0000 C   0  0  0  0  0  0  0  0  0  0  0  0
   10.9974    4.6993    0.0000 C   0  0  0  0  0  0  0  0  0  0  0  0
   11.7118    4.2868    0.0000 N   0  0  0  0  0  0  0  0  0  0  0  0
   12.4263    4.6993    0.0000 C   0  0  0  0  0  0  0  0  0  0  0  0
   13.1408    4.2868    0.0000 C   0  0  0  0  0  0  0  0  0  0  0  0
   13.8552    4.6993    0.0000 C   0  0  0  0  0  0  0  0  0  0  0  0
   14.5697    4.2868    0.0000 C   0  0  0  0  0  0  0  0  0  0  0  0
   15.2842    4.6993    0.0000 C   0  0  0  0  0  0  0  0  0  0  0  0
   15.9987    4.2868    0.0000 C   0  0  0  0  0  0  0  0  0  0  0  0
   16.7131    4.6993    0.0000 N   0  0  0  0  0  0  0  0  0  0  0  0
  1  2  1  0  0  0  0
  2  3  1  0  0  0  0
  3  4  1  0  0  0  0
  4  5  1  0  0  0  0
  5  6  1  0  0  0  0
  6  7  1  0  0  0  0
  7  8  1  0  0  0  0
  8  9  1  0  0  0  0
  9 10  1  0  0  0  0
 10 11  1  0  0  0  0
 11 12  1  0  0  0  0
 12 13  1  0  0  0  0
 13 14  1  0  0  0  0
 14 15  1  0  0  0  0
M  END
> <DRUGBANK_ID>
DB04684

> <DRUG_GROUPS>
experimental

> <GENERIC_NAME>
BIS(HEXAMETHYLENE)TRIAMINE

> <CHEMICAL_FORMULA>
C12H29N3

> <MOLECULAR_WEIGHT>
215.3788

> <EXACT_MASS>
215.236147943

> <IUPAC_NAME>
bis(6-aminohexyl)amine

> <IUPAC_TRADITIONAL_NAME>
bis(6-aminohexyl)amine

> <INCHI_IDENTIFIER>
InChI=1S/C12H29N3/c13-9-5-1-3-7-11-15-12-8-4-2-6-10-14/h15H,1-14H2

> <INCHI_KEY>
InChIKey=MRNZSTMRDWRNNR-UHFFFAOYSA-N

> <SMILES>
NCCCCCCNCCCCCCN

> <JCHEM_ACCEPTOR_COUNT>
3

> <JCHEM_DONOR_COUNT>
3

> <JCHEM_BASIC_PKA>
10.95

> <JCHEM_PHYSIOLOGICAL_CHARGE>
3

> <ALOGPS_LOGP>
1.86

> <JCHEM_LOGP>
1.15

> <ALOGPS_LOGS>
-3

> <JCHEM_POLARIZABILITY>
29.03

> <JCHEM_POLAR_SURFACE_AREA>
64.07

> <JCHEM_REFRACTIVITY>
68.02

> <JCHEM_ROTATABLE_BOND_COUNT>
12

> <ALOGPS_SOLUBILITY>
2.10e-01 g/l __ 

$$$$
