
  Mrv0541 02231217402D          

 10 10  0  0  0  0            999 V2000
    0.7145   -1.2375    0.0000 O   0  0  0  0  0  0  0  0  0  0  0  0
    0.7145   -0.4125    0.0000 C   0  0  0  0  0  0  0  0  0  0  0  0
    0.0000    0.0000    0.0000 C   0  0  0  0  0  0  0  0  0  0  0  0
    0.0000    0.8250    0.0000 C   0  0  0  0  0  0  0  0  0  0  0  0
    0.7145    1.2375    0.0000 C   0  0  0  0  0  0  0  0  0  0  0  0
    1.4289    0.8250    0.0000 C   0  0  0  0  0  0  0  0  0  0  0  0
    1.4289    0.0000    0.0000 C   0  0  0  0  0  0  0  0  0  0  0  0
    0.7145    2.0625    0.0000 N   0  3  0  0  0  0  0  0  0  0  0  0
    0.0000    2.4750    0.0000 O   0  5  0  0  0  0  0  0  0  0  0  0
    1.4289    2.4750    0.0000 O   0  0  0  0  0  0  0  0  0  0  0  0
  1  2  1  0  0  0  0
  2  3  2  0  0  0  0
  3  4  1  0  0  0  0
  4  5  2  0  0  0  0
  5  6  1  0  0  0  0
  6  7  2  0  0  0  0
  2  7  1  0  0  0  0
  5  8  1  0  0  0  0
  8  9  1  0  0  0  0
  8 10  2  0  0  0  0
M  END
> <DRUGBANK_ID>
DB04417

> <DRUG_GROUPS>
experimental

> <GENERIC_NAME>
P-Nitrophenol

> <CHEMICAL_FORMULA>
C6H5NO3

> <MOLECULAR_WEIGHT>
139.1088

> <EXACT_MASS>
139.026943031

> <IUPAC_NAME>
4-nitrophenol

> <IUPAC_TRADITIONAL_NAME>
P-nitrophenol

> <INCHI_IDENTIFIER>
InChI=1S/C6H5NO3/c8-6-3-1-5(2-4-6)7(9)10/h1-4,8H

> <INCHI_KEY>
InChIKey=BTJIUGUIPKRLHP-UHFFFAOYSA-N

> <SMILES>
OC1=CC=C(C=C1)[N+]([O-])=O

> <JCHEM_ACCEPTOR_COUNT>
3

> <JCHEM_DONOR_COUNT>
1

> <JCHEM_ACIDIC_PKA>
7.04

> <JCHEM_BASIC_PKA>
-7.1

> <JCHEM_PHYSIOLOGICAL_CHARGE>
0

> <ALOGPS_LOGP>
1.93

> <JCHEM_LOGP>
1.61

> <ALOGPS_LOGS>
-1.6

> <JCHEM_POLARIZABILITY>
12.18

> <JCHEM_POLAR_SURFACE_AREA>
66.05

> <JCHEM_REFRACTIVITY>
35.36

> <JCHEM_ROTATABLE_BOND_COUNT>
1

> <ALOGPS_SOLUBILITY>
3.60e+00 g/l __ 

$$$$
