GAJ
  Mrv0541 02231217512D          

 24 27  0  0  0  0            999 V2000
   -0.7773   -1.2944    0.0000 O   0  0  0  0  0  0  0  0  0  0  0  0
   -1.1898   -0.5799    0.0000 S   0  0  0  0  0  0  0  0  0  0  0  0
   -1.6023    0.1346    0.0000 O   0  0  0  0  0  0  0  0  0  0  0  0
   -1.9043   -0.9924    0.0000 N   0  0  0  0  0  0  0  0  0  0  0  0
   -2.6187   -0.5799    0.0000 C   0  0  0  0  0  0  0  0  0  0  0  0
   -3.3724   -0.9154    0.0000 N   0  0  0  0  0  0  0  0  0  0  0  0
   -3.9244   -0.3024    0.0000 N   0  0  0  0  0  0  0  0  0  0  0  0
   -3.5119    0.4121    0.0000 N   0  0  0  0  0  0  0  0  0  0  0  0
   -2.7050    0.2406    0.0000 N   0  0  0  0  0  0  0  0  0  0  0  0
   -0.4753   -0.1674    0.0000 C   0  0  0  0  0  0  0  0  0  0  0  0
    0.2392   -0.5799    0.0000 C   0  0  0  0  0  0  0  0  0  0  0  0
   -0.4753    0.6576    0.0000 C   0  0  0  0  0  0  0  0  0  0  0  0
    0.2392    1.0701    0.0000 C   0  0  0  0  0  0  0  0  0  0  0  0
    0.9536    0.6576    0.0000 C   0  0  0  0  0  0  0  0  0  0  0  0
    1.6681    1.0701    0.0000 O   0  0  0  0  0  0  0  0  0  0  0  0
    2.3826    0.6576    0.0000 C   0  0  0  0  0  0  0  0  0  0  0  0
    3.0970    1.0701    0.0000 C   0  0  0  0  0  0  0  0  0  0  0  0
    3.8115    0.6576    0.0000 C   0  0  0  0  0  0  0  0  0  0  0  0
    3.8115   -0.1674    0.0000 C   0  0  0  0  0  0  0  0  0  0  0  0
    3.0970   -0.5799    0.0000 C   0  0  0  0  0  0  0  0  0  0  0  0
    2.3826   -0.1674    0.0000 C   0  0  0  0  0  0  0  0  0  0  0  0
    1.6681   -0.5799    0.0000 C   0  0  0  0  0  0  0  0  0  0  0  0
    0.9536   -0.1674    0.0000 C   0  0  0  0  0  0  0  0  0  0  0  0
    1.6681   -1.4049    0.0000 O   0  0  0  0  0  0  0  0  0  0  0  0
  1  2  2  0  0  0  0
  2  3  2  0  0  0  0
  2  4  1  0  0  0  0
  2 10  1  0  0  0  0
  4  5  2  0  0  0  0
  5  6  1  0  0  0  0
  5  9  1  0  0  0  0
  6  7  1  0  0  0  0
  7  8  2  0  0  0  0
  8  9  1  0  0  0  0
 10 11  2  0  0  0  0
 10 12  1  0  0  0  0
 11 23  1  0  0  0  0
 12 13  2  0  0  0  0
 13 14  1  0  0  0  0
 14 15  1  0  0  0  0
 14 23  2  0  0  0  0
 15 16  1  0  0  0  0
 16 17  2  0  0  0  0
 16 21  1  0  0  0  0
 17 18  1  0  0  0  0
 18 19  2  0  0  0  0
 19 20  1  0  0  0  0
 20 21  2  0  0  0  0
 21 22  1  0  0  0  0
 22 23  1  0  0  0  0
 22 24  2  0  0  0  0
M  END
> <DRUGBANK_ID>
DB04698

> <DRUG_GROUPS>
experimental

> <GENERIC_NAME>
N-(1,4-DIHYDRO-5H-TETRAZOL-5-YLIDENE)-9-OXO-9H-XANTHENE-2-SULFONAMIDE

> <CHEMICAL_FORMULA>
C14H9N5O4S

> <MOLECULAR_WEIGHT>
343.317

> <EXACT_MASS>
343.037524491

> <IUPAC_NAME>
N-[(5E)-4,5-dihydro-1H-1,2,3,4-tetrazol-5-ylidene]-9-oxo-9H-xanthene-2-sulfonamide

> <IUPAC_TRADITIONAL_NAME>
N-[(5E)-1,4-dihydro-1,2,3,4-tetrazol-5-ylidene]-9-oxoxanthene-2-sulfonamide

> <INCHI_IDENTIFIER>
InChI=1S/C14H9N5O4S/c20-13-9-3-1-2-4-11(9)23-12-6-5-8(7-10(12)13)24(21,22)17-14-15-18-19-16-14/h1-7H,(H2,15,16,17,18,19)

> <INCHI_KEY>
InChIKey=HJWYZPGYPZNDTN-UHFFFAOYSA-N

> <SMILES>
O=C1C2=CC=CC=C2OC2=C1C=C(C=C2)S(=O)(=O)N=C1NN=NN1

> <JCHEM_ACCEPTOR_COUNT>
8

> <JCHEM_DONOR_COUNT>
2

> <JCHEM_ACIDIC_PKA>
6.37

> <JCHEM_BASIC_PKA>
-1.9

> <JCHEM_PHYSIOLOGICAL_CHARGE>
0

> <ALOGPS_LOGP>
1.43

> <JCHEM_LOGP>
2.52

> <ALOGPS_LOGS>
-3.5

> <JCHEM_POLARIZABILITY>
31.42

> <JCHEM_POLAR_SURFACE_AREA>
121.58

> <JCHEM_REFRACTIVITY>
108.13

> <JCHEM_ROTATABLE_BOND_COUNT>
1

> <ALOGPS_SOLUBILITY>
1.12e-01 g/l __ 

$$$$
