PB3
  Mrv0541 02231217532D          

 28 30  0  0  0  0            999 V2000
    0.0312    0.6561    0.0000 C   0  0  0  0  0  0  0  0  0  0  0  0
    0.7457    0.2436    0.0000 C   0  0  0  0  0  0  0  0  0  0  0  0
    0.7457   -0.5814    0.0000 C   0  0  0  0  0  0  0  0  0  0  0  0
   -0.6833    0.2436    0.0000 N   0  0  0  0  0  0  0  0  0  0  0  0
    0.7457   -4.7064    0.0000 C   0  0  0  0  0  0  0  0  0  0  0  0
   -2.1122    5.1936    0.0000 C   0  0  0  0  0  0  0  0  0  0  0  0
    1.4602   -0.9939    0.0000 C   0  0  0  0  0  0  0  0  0  0  0  0
    2.1746   -2.2314    0.0000 C   0  0  0  0  0  0  0  0  0  0  0  0
    2.1746   -3.0564    0.0000 C   0  0  0  0  0  0  0  0  0  0  0  0
    0.0312    1.4811    0.0000 C   0  0  0  0  0  0  0  0  0  0  0  0
   -1.3977    3.9561    0.0000 C   0  0  0  0  0  0  0  0  0  0  0  0
   -2.8267    3.1311    0.0000 C   0  0  0  0  0  0  0  0  0  0  0  0
    2.8891   -3.4689    0.0000 C   0  0  0  0  0  0  0  0  0  0  0  0
    2.8891   -4.2939    0.0000 C   0  0  0  0  0  0  0  0  0  0  0  0
    2.1746   -4.7064    0.0000 C   0  0  0  0  0  0  0  0  0  0  0  0
    1.4602   -3.4689    0.0000 C   0  0  0  0  0  0  0  0  0  0  0  0
    0.0312   -0.9939    0.0000 N   0  0  0  0  0  0  0  0  0  0  0  0
   -0.6833   -0.5814    0.0000 C   0  0  0  0  0  0  0  0  0  0  0  0
    1.4602   -1.8189    0.0000 N   0  0  0  0  0  0  0  0  0  0  0  0
   -0.6833    1.8936    0.0000 N   0  0  0  0  0  0  0  0  0  0  0  0
   -0.6833    2.7186    0.0000 C   0  0  0  0  0  0  0  0  0  0  0  0
   -1.3977    3.1311    0.0000 C   0  0  0  0  0  0  0  0  0  0  0  0
   -2.1122    4.3686    0.0000 C   0  0  0  0  0  0  0  0  0  0  0  0
   -2.8267    3.9561    0.0000 C   0  0  0  0  0  0  0  0  0  0  0  0
   -2.1122    2.7186    0.0000 C   0  0  0  0  0  0  0  0  0  0  0  0
    1.4602   -4.2939    0.0000 C   0  0  0  0  0  0  0  0  0  0  0  0
    0.7457    1.8936    0.0000 O   0  0  0  0  0  0  0  0  0  0  0  0
    2.1746   -0.5814    0.0000 O   0  0  0  0  0  0  0  0  0  0  0  0
  1  2  1  0  0  0  0
  1  4  2  0  0  0  0
  1 10  1  0  0  0  0
  2  3  2  0  0  0  0
  3  7  1  0  0  0  0
  3 17  1  0  0  0  0
  4 18  1  0  0  0  0
  5 26  1  0  0  0  0
  6 23  1  0  0  0  0
  7 19  1  0  0  0  0
  7 28  2  0  0  0  0
  8  9  1  0  0  0  0
  8 19  1  0  0  0  0
  9 13  2  0  0  0  0
  9 16  1  0  0  0  0
 10 20  1  0  0  0  0
 10 27  2  0  0  0  0
 11 22  1  0  0  0  0
 11 23  2  0  0  0  0
 12 24  2  0  0  0  0
 12 25  1  0  0  0  0
 13 14  1  0  0  0  0
 14 15  2  0  0  0  0
 15 26  1  0  0  0  0
 16 26  2  0  0  0  0
 17 18  2  0  0  0  0
 20 21  1  0  0  0  0
 21 22  1  0  0  0  0
 22 25  2  0  0  0  0
 23 24  1  0  0  0  0
M  END
> <DRUGBANK_ID>
DB04759

> <DRUG_GROUPS>
experimental

> <GENERIC_NAME>
PYRIMIDINE-4,6-DICARBOXYLIC ACID BIS-(3-METHYL-BENZYLAMIDE)

> <CHEMICAL_FORMULA>
C22H22N4O2

> <MOLECULAR_WEIGHT>
374.4357

> <EXACT_MASS>
374.174275968

> <IUPAC_NAME>
4-N,6-N-bis[(3-methylphenyl)methyl]pyrimidine-4,6-dicarboxamide

> <IUPAC_TRADITIONAL_NAME>
4-N,6-N-bis[(3-methylphenyl)methyl]pyrimidine-4,6-dicarboxamide

> <INCHI_IDENTIFIER>
InChI=1S/C22H22N4O2/c1-15-5-3-7-17(9-15)12-23-21(27)19-11-20(26-14-25-19)22(28)24-13-18-8-4-6-16(2)10-18/h3-11,14H,12-13H2,1-2H3,(H,23,27)(H,24,28)

> <INCHI_KEY>
InChIKey=GTBUZLPQANSGGE-UHFFFAOYSA-N

> <SMILES>
CC1=CC(CNC(=O)C2=CC(=NC=N2)C(=O)NCC2=CC=CC(C)=C2)=CC=C1

> <JCHEM_ACCEPTOR_COUNT>
4

> <JCHEM_DONOR_COUNT>
2

> <JCHEM_ACIDIC_PKA>
13.34

> <JCHEM_BASIC_PKA>
-2.8

> <JCHEM_PHYSIOLOGICAL_CHARGE>
0

> <ALOGPS_LOGP>
1.97

> <JCHEM_LOGP>
3.45

> <ALOGPS_LOGS>
-4.7

> <JCHEM_POLARIZABILITY>
41.81

> <JCHEM_POLAR_SURFACE_AREA>
83.98

> <JCHEM_REFRACTIVITY>
109.24

> <JCHEM_ROTATABLE_BOND_COUNT>
6

> <ALOGPS_SOLUBILITY>
7.51e-03 g/l __ 

$$$$
