BZC
  Mrv0541 02231217212D          

 20 22  0  0  0  0            999 V2000
    1.0314    0.1002    0.0000 C   0  0  0  0  0  0  0  0  0  0  0  0
    0.2467   -0.1547    0.0000 N   0  0  0  0  0  0  0  0  0  0  0  0
   -0.2382    0.5127    0.0000 C   0  0  0  0  0  0  0  0  0  0  0  0
    0.2467    1.1802    0.0000 N   0  0  0  0  0  0  0  0  0  0  0  0
    1.0314    0.9252    0.0000 C   0  0  0  0  0  0  0  0  0  0  0  0
    1.7458    1.3377    0.0000 C   0  0  0  0  0  0  0  0  0  0  0  0
    1.7458   -0.3123    0.0000 C   0  0  0  0  0  0  0  0  0  0  0  0
   -1.0632    0.5127    0.0000 C   0  0  0  0  0  0  0  0  0  0  0  0
    2.4603    0.1002    0.0000 C   0  0  0  0  0  0  0  0  0  0  0  0
    2.4603    0.9252    0.0000 C   0  0  0  0  0  0  0  0  0  0  0  0
    1.7458   -1.1373    0.0000 C   0  0  0  0  0  0  0  0  0  0  0  0
    2.4603   -1.5498    0.0000 N   0  0  0  0  0  0  0  0  0  0  0  0
    1.0314   -1.5498    0.0000 O   0  0  0  0  0  0  0  0  0  0  0  0
   -1.4757   -0.2018    0.0000 C   0  0  0  0  0  0  0  0  0  0  0  0
   -1.4757    1.2272    0.0000 C   0  0  0  0  0  0  0  0  0  0  0  0
   -2.3007   -0.2018    0.0000 C   0  0  0  0  0  0  0  0  0  0  0  0
   -2.7132   -0.9162    0.0000 O   0  0  0  0  0  0  0  0  0  0  0  0
   -2.7132    0.5127    0.0000 C   0  0  0  0  0  0  0  0  0  0  0  0
   -2.3007    1.2272    0.0000 C   0  0  0  0  0  0  0  0  0  0  0  0
   -2.3007   -1.6307    0.0000 C   0  0  0  0  0  0  0  0  0  0  0  0
  1  2  1  0  0  0  0
  1  5  2  0  0  0  0
  1  7  1  0  0  0  0
  2  3  2  0  0  0  0
  3  4  1  0  0  0  0
  3  8  1  0  0  0  0
  4  5  1  0  0  0  0
  5  6  1  0  0  0  0
  6 10  2  0  0  0  0
  7  9  2  0  0  0  0
  7 11  1  0  0  0  0
  8 14  2  0  0  0  0
  8 15  1  0  0  0  0
  9 10  1  0  0  0  0
 11 12  1  0  0  0  0
 11 13  2  0  0  0  0
 14 16  1  0  0  0  0
 15 19  2  0  0  0  0
 16 17  1  0  0  0  0
 16 18  2  0  0  0  0
 17 20  1  0  0  0  0
 18 19  1  0  0  0  0
M  END
> <DRUGBANK_ID>
DB04010

> <DRUG_GROUPS>
experimental

> <GENERIC_NAME>
2-(3'-Methoxyphenyl) Benzimidazole-4-Carboxamide

> <CHEMICAL_FORMULA>
C15H13N3O2

> <MOLECULAR_WEIGHT>
267.2826

> <EXACT_MASS>
267.100776675

> <IUPAC_NAME>
2-(3-methoxyphenyl)-1H-1,3-benzodiazole-4-carboxamide

> <IUPAC_TRADITIONAL_NAME>
2-(3-methoxyphenyl)-1H-1,3-benzodiazole-4-carboxamide

> <INCHI_IDENTIFIER>
InChI=1S/C15H13N3O2/c1-20-10-5-2-4-9(8-10)15-17-12-7-3-6-11(14(16)19)13(12)18-15/h2-8H,1H3,(H2,16,19)(H,17,18)

> <INCHI_KEY>
InChIKey=NVVWVYYHTKCIAE-UHFFFAOYSA-N

> <SMILES>
COC1=CC=CC(=C1)C1=NC2=C(N1)C=CC=C2C(N)=O

> <JCHEM_ACCEPTOR_COUNT>
3

> <JCHEM_DONOR_COUNT>
2

> <JCHEM_ACIDIC_PKA>
10.33

> <JCHEM_BASIC_PKA>
4.07

> <JCHEM_PHYSIOLOGICAL_CHARGE>
0

> <ALOGPS_LOGP>
2.04

> <JCHEM_LOGP>
1.98

> <ALOGPS_LOGS>
-3.4

> <JCHEM_POLARIZABILITY>
28.62

> <JCHEM_POLAR_SURFACE_AREA>
81

> <JCHEM_REFRACTIVITY>
85.61

> <JCHEM_ROTATABLE_BOND_COUNT>
3

> <ALOGPS_SOLUBILITY>
1.00e-01 g/l __ 

$$$$
