
  Mrv0541 02231217292D          

 12 12  0  0  1  0            999 V2000
    0.0059   -1.5764    0.0000 O   0  0  0  0  0  0  0  0  0  0  0  0
   -0.3297   -0.8227    0.0000 C   0  0  0  0  0  0  0  0  0  0  0  0
    0.1553   -0.1553    0.0000 C   0  0  2  0  0  0  0  0  0  0  0  0
   -0.0997    0.6294    0.0000 O   0  0  0  0  0  0  0  0  0  0  0  0
    0.5678    1.1143    0.0000 C   0  0  1  0  0  0  0  0  0  0  0  0
    0.0157    1.7274    0.0000 O   0  0  0  0  0  0  0  0  0  0  0  0
    1.1198    1.7274    0.0000 C   0  0  0  0  0  0  0  0  0  0  0  0
    0.8649    2.5120    0.0000 O   0  0  0  0  0  0  0  0  0  0  0  0
    1.2352    0.6294    0.0000 C   0  0  2  0  0  0  0  0  0  0  0  0
    2.0198    0.8843    0.0000 O   0  0  0  0  0  0  0  0  0  0  0  0
    0.9803   -0.1553    0.0000 C   0  0  1  0  0  0  0  0  0  0  0  0
    1.4652   -0.8227    0.0000 O   0  0  0  0  0  0  0  0  0  0  0  0
  1  2  1  0  0  0  0
  3  2  1  6  0  0  0
  3  4  1  0  0  0  0
  4  5  1  0  0  0  0
  5  6  1  6  0  0  0
  5  7  1  1  0  0  0
  7  8  1  0  0  0  0
  5  9  1  0  0  0  0
  9 10  1  6  0  0  0
  9 11  1  0  0  0  0
  3 11  1  0  0  0  0
 11 12  1  1  0  0  0
M  END
> <DRUGBANK_ID>
DB04173

> <DRUG_GROUPS>
experimental

> <GENERIC_NAME>
Fructose

> <CHEMICAL_FORMULA>
C6H12O6

> <MOLECULAR_WEIGHT>
180.1559

> <EXACT_MASS>
180.063388116

> <IUPAC_NAME>
(2S,3R,4R,5S)-2,5-bis(hydroxymethyl)oxolane-2,3,4-triol

> <IUPAC_TRADITIONAL_NAME>
fructose

> <INCHI_IDENTIFIER>
InChI=1S/C6H12O6/c7-1-3-4(9)5(10)6(11,2-8)12-3/h3-5,7-11H,1-2H2/t3-,4-,5+,6-/m0/s1

> <INCHI_KEY>
InChIKey=RFSUNEUAIZKAJO-AZGQCCRYSA-N

> <SMILES>
OC[C@@H]1O[C@@](O)(CO)[C@H](O)[C@H]1O

> <JCHEM_ACCEPTOR_COUNT>
6

> <JCHEM_DONOR_COUNT>
5

> <JCHEM_ACIDIC_PKA>
10.28

> <JCHEM_BASIC_PKA>
-3

> <JCHEM_PHYSIOLOGICAL_CHARGE>
0

> <ALOGPS_LOGP>
-2.5

> <JCHEM_LOGP>
-2.8

> <ALOGPS_LOGS>
0.79

> <JCHEM_POLARIZABILITY>
16.29

> <JCHEM_POLAR_SURFACE_AREA>
110.38

> <JCHEM_REFRACTIVITY>
36.36

> <JCHEM_ROTATABLE_BOND_COUNT>
2

> <ALOGPS_SOLUBILITY>
1.11e+03 g/l __ 

$$$$
