BIF
  Mrv0541 02231217492D          

 19 20  0  0  0  0            999 V2000
    1.1756    0.8366    0.0000 N   0  0  0  0  0  0  0  0  0  0  0  0
    1.8901    1.2491    0.0000 C   0  0  2  0  0  0  0  0  0  0  0  0
    1.8901    2.0741    0.0000 C   0  0  0  0  0  0  0  0  0  0  0  0
    1.1756    2.4866    0.0000 O   0  0  0  0  0  0  0  0  0  0  0  0
    2.6046    0.8366    0.0000 C   0  0  0  0  0  0  0  0  0  0  0  0
    2.6046    0.0116    0.0000 C   0  0  0  0  0  0  0  0  0  0  0  0
    3.3190   -0.4009    0.0000 C   0  0  0  0  0  0  0  0  0  0  0  0
    3.3190   -1.2259    0.0000 C   0  0  0  0  0  0  0  0  0  0  0  0
    2.6046   -1.6384    0.0000 C   0  0  0  0  0  0  0  0  0  0  0  0
    1.8901   -1.2259    0.0000 C   0  0  0  0  0  0  0  0  0  0  0  0
    1.8901   -0.4009    0.0000 C   0  0  0  0  0  0  0  0  0  0  0  0
    3.3190   -3.7009    0.0000 C   0  0  0  0  0  0  0  0  0  0  0  0
    2.6046   -4.1134    0.0000 C   0  0  0  0  0  0  0  0  0  0  0  0
    1.8901   -3.7009    0.0000 C   0  0  0  0  0  0  0  0  0  0  0  0
    1.8901   -2.8759    0.0000 C   0  0  0  0  0  0  0  0  0  0  0  0
    2.6046   -2.4634    0.0000 C   0  0  0  0  0  0  0  0  0  0  0  0
    3.3190   -2.8759    0.0000 C   0  0  0  0  0  0  0  0  0  0  0  0
    2.6046    2.4866    0.0000 O   0  0  0  0  0  0  0  0  0  0  0  0
    1.3844    1.5411    0.0000 H   0  0  0  0  0  0  0  0  0  0  0  0
  2  1  1  6  0  0  0
  2  3  1  0  0  0  0
  2  5  1  0  0  0  0
  2 19  1  1  0  0  0
  3  4  1  0  0  0  0
  3 18  2  0  0  0  0
  5  6  1  0  0  0  0
  6  7  2  0  0  0  0
  6 11  1  0  0  0  0
  7  8  1  0  0  0  0
  8  9  2  0  0  0  0
  9 10  1  0  0  0  0
  9 16  1  0  0  0  0
 10 11  2  0  0  0  0
 12 13  2  0  0  0  0
 12 17  1  0  0  0  0
 13 14  1  0  0  0  0
 14 15  2  0  0  0  0
 15 16  1  0  0  0  0
 16 17  2  0  0  0  0
M  END
> <DRUGBANK_ID>
DB04639

> <DRUG_GROUPS>
experimental

> <GENERIC_NAME>
Biphenylalanine

> <CHEMICAL_FORMULA>
C15H15NO2

> <MOLECULAR_WEIGHT>
241.2851

> <EXACT_MASS>
241.110278729

> <IUPAC_NAME>
(2S)-2-amino-3-(4-phenylphenyl)propanoic acid

> <IUPAC_TRADITIONAL_NAME>
biphenylalanine

> <INCHI_IDENTIFIER>
InChI=1S/C15H15NO2/c16-14(15(17)18)10-11-6-8-13(9-7-11)12-4-2-1-3-5-12/h1-9,14H,10,16H2,(H,17,18)/t14-/m0/s1

> <INCHI_KEY>
InChIKey=JCZLABDVDPYLRZ-AWEZNQCLSA-N

> <SMILES>
[H][C@](N)(CC1=CC=C(C=C1)C1=CC=CC=C1)C(O)=O

> <JCHEM_ACCEPTOR_COUNT>
3

> <JCHEM_DONOR_COUNT>
2

> <JCHEM_ACIDIC_PKA>
2.49

> <JCHEM_BASIC_PKA>
9.44

> <JCHEM_PHYSIOLOGICAL_CHARGE>
0

> <ALOGPS_LOGP>
0.1

> <JCHEM_LOGP>
0.46

> <ALOGPS_LOGS>
-3.6

> <JCHEM_POLARIZABILITY>
26.67

> <JCHEM_POLAR_SURFACE_AREA>
63.32

> <JCHEM_REFRACTIVITY>
70.25

> <JCHEM_ROTATABLE_BOND_COUNT>
4

> <ALOGPS_SOLUBILITY>
5.87e-02 g/l __ 

$$$$
