
  Mrv0541 02231217242D          

 10  9  0  0  1  0            999 V2000
    1.0461    1.4289    0.0000 C   0  0  0  0  0  0  0  0  0  0  0  0
    1.7605    1.8414    0.0000 C   0  0  0  0  0  0  0  0  0  0  0  0
    2.4750    1.4289    0.0000 C   0  0  0  0  0  0  0  0  0  0  0  0
    3.1895    1.8414    0.0000 C   0  0  0  0  0  0  0  0  0  0  0  0
    3.9039    1.4289    0.0000 C   0  0  2  0  0  0  0  0  0  0  0  0
    3.9039    0.6039    0.0000 O   0  0  0  0  0  0  0  0  0  0  0  0
    4.6184    1.8414    0.0000 C   0  0  1  0  0  0  0  0  0  0  0  0
    4.6184    2.6664    0.0000 O   0  0  0  0  0  0  0  0  0  0  0  0
    5.3329    1.4289    0.0000 C   0  0  0  0  0  0  0  0  0  0  0  0
    6.0474    1.8414    0.0000 O   0  0  0  0  0  0  0  0  0  0  0  0
  1  2  1  0  0  0  0
  2  3  1  0  0  0  0
  3  4  1  0  0  0  0
  4  5  1  0  0  0  0
  5  6  1  1  0  0  0
  5  7  1  0  0  0  0
  7  8  1  1  0  0  0
  7  9  1  0  0  0  0
  9 10  1  0  0  0  0
M  END
> <DRUGBANK_ID>
DB04079

> <DRUG_GROUPS>
experimental

> <GENERIC_NAME>
Heptane-1,2,3-Triol

> <CHEMICAL_FORMULA>
C7H16O3

> <MOLECULAR_WEIGHT>
148.2001

> <EXACT_MASS>
148.109944378

> <IUPAC_NAME>
(2S,3S)-heptane-1,2,3-triol

> <IUPAC_TRADITIONAL_NAME>
heptane-1,2,3-triol

> <INCHI_IDENTIFIER>
InChI=1S/C7H16O3/c1-2-3-4-6(9)7(10)5-8/h6-10H,2-5H2,1H3/t6-,7-/m0/s1

> <INCHI_KEY>
InChIKey=HXYCHJFUBNTKQR-BQBZGAKWSA-N

> <SMILES>
CCCC[C@H](O)[C@@H](O)CO

> <JCHEM_ACCEPTOR_COUNT>
3

> <JCHEM_DONOR_COUNT>
3

> <JCHEM_ACIDIC_PKA>
13.34

> <JCHEM_BASIC_PKA>
-3

> <JCHEM_PHYSIOLOGICAL_CHARGE>
0

> <ALOGPS_LOGP>
-0.26

> <JCHEM_LOGP>
-0.011

> <ALOGPS_LOGS>
0.15

> <JCHEM_POLARIZABILITY>
16.74

> <JCHEM_POLAR_SURFACE_AREA>
60.69

> <JCHEM_REFRACTIVITY>
38.66

> <JCHEM_ROTATABLE_BOND_COUNT>
5

> <ALOGPS_SOLUBILITY>
2.10e+02 g/l __ 

$$$$
