
  Mrv0541 02231217222D          

 12 11  0  0  1  0            999 V2000
    4.6184    2.6664    0.0000 N   0  0  0  0  0  0  0  0  0  0  0  0
    4.6184    1.8414    0.0000 C   0  0  1  0  0  0  0  0  0  0  0  0
    3.9039    1.4289    0.0000 C   0  0  0  0  0  0  0  0  0  0  0  0
    3.1895    1.8414    0.0000 O   0  0  0  0  0  0  0  0  0  0  0  0
    2.4750    1.4289    0.0000 V   0  0  0  0  0  0  0  0  0  0  0  0
    1.6545    1.5152    0.0000 O   0  0  0  0  0  0  0  0  0  0  0  0
    2.3035    2.2359    0.0000 O   0  5  0  0  0  0  0  0  0  0  0  0
    2.1394    0.6753    0.0000 O   0  5  0  0  0  0  0  0  0  0  0  0
    3.0881    0.8769    0.0000 O   0  5  0  0  0  0  0  0  0  0  0  0
    5.3329    1.4289    0.0000 C   0  0  0  0  0  0  0  0  0  0  0  0
    6.0474    1.8414    0.0000 O   0  0  0  0  0  0  0  0  0  0  0  0
    5.3329    0.6039    0.0000 O   0  0  0  0  0  0  0  0  0  0  0  0
  2  1  1  6  0  0  0
  2  3  1  0  0  0  0
  3  4  1  0  0  0  0
  4  5  1  0  0  0  0
  5  6  1  0  0  0  0
  5  7  1  0  0  0  0
  5  8  1  0  0  0  0
  5  9  1  0  0  0  0
  2 10  1  0  0  0  0
 10 11  1  0  0  0  0
 10 12  2  0  0  0  0
M  END
> <DRUGBANK_ID>
DB04031

> <DRUG_GROUPS>
experimental

> <GENERIC_NAME>
Serine Vanadate

> <SYNONYMS>


> <CHEMICAL_FORMULA>
C3H7NO7V

> <MOLECULAR_WEIGHT>
220.0317

> <EXACT_MASS>
219.966215258

> <IUPAC_NAME>
[(2S)-2-amino-2-carboxyethoxy](hydroxy)vanadiumtris(olate)

> <IUPAC_TRADITIONAL_NAME>
serine vanadate

> <INCHI_IDENTIFIER>
InChI=1S/C3H6NO3.H2O.3O.V/c4-2(1-5)3(6)7;;;;;/h2H,1,4H2,(H,6,7);1H2;;;;/q-1;;3*-1;+2/p-1/t2-;;;;;/m0...../s1

> <INCHI_KEY>
InChIKey=SYKYEBJDHHGBFL-PUAMRSTPSA-M

> <SMILES>
N[C@@H](CO[V](O)([O-])([O-])[O-])C(O)=O

> <JCHEM_ACCEPTOR_COUNT>
8

> <JCHEM_DONOR_COUNT>
3

> <JCHEM_ACIDIC_PKA>
1.25

> <JCHEM_BASIC_PKA>
7.68

> <JCHEM_PHYSIOLOGICAL_CHARGE>
0

> <ALOGPS_LOGP>
-2.5

> <JCHEM_LOGP>
-5.8

> <ALOGPS_LOGS>
-0.92

> <JCHEM_POLARIZABILITY>
15.65

> <JCHEM_POLAR_SURFACE_AREA>
161.96

> <JCHEM_REFRACTIVITY>
27.72

> <JCHEM_ROTATABLE_BOND_COUNT>
4

> <ALOGPS_SOLUBILITY>
3.25e+01 g/l __ 

$$$$
