
  Mrv0541 02231217492D          

 31 32  0  0  1  0            999 V2000
   -5.0013   -3.7125    0.0000 N   0  0  0  0  0  0  0  0  0  0  0  0
   -4.2868   -4.1250    0.0000 C   0  0  0  0  0  0  0  0  0  0  0  0
   -4.2868   -4.9500    0.0000 N   0  0  0  0  0  0  0  0  0  0  0  0
   -3.5724   -3.7125    0.0000 N   0  0  0  0  0  0  0  0  0  0  0  0
   -3.5724   -2.8875    0.0000 C   0  0  0  0  0  0  0  0  0  0  0  0
   -2.8579   -4.1250    0.0000 C   0  0  0  0  0  0  0  0  0  0  0  0
   -2.1434   -3.7125    0.0000 C   0  0  0  0  0  0  0  0  0  0  0  0
   -1.4289   -4.1250    0.0000 C   0  0  2  0  0  0  0  0  0  0  0  0
   -1.4289   -4.9500    0.0000 N   0  0  0  0  0  0  0  0  0  0  0  0
   -0.7145   -3.7125    0.0000 C   0  0  0  0  0  0  0  0  0  0  0  0
    0.0000   -4.1250    0.0000 C   0  0  0  0  0  0  0  0  0  0  0  0
    0.0000   -4.9500    0.0000 O   0  0  0  0  0  0  0  0  0  0  0  0
    0.7145   -3.7125    0.0000 N   0  0  0  0  0  0  0  0  0  0  0  0
    0.7145   -2.8875    0.0000 C   0  0  1  0  0  0  0  0  0  0  0  0
    0.0000   -2.4750    0.0000 C   0  0  0  0  0  0  0  0  0  0  0  0
    0.0000   -1.6500    0.0000 C   0  0  0  0  0  0  0  0  0  0  0  0
    0.7145   -1.2375    0.0000 C   0  0  1  0  0  0  0  0  0  0  0  0
    1.4289   -1.6500    0.0000 O   0  0  0  0  0  0  0  0  0  0  0  0
    1.4289   -2.4750    0.0000 C   0  0  2  0  0  0  0  0  0  0  0  0
    2.1434   -2.8875    0.0000 C   0  0  0  0  0  0  0  0  0  0  0  0
    2.1434   -3.7125    0.0000 O   0  0  0  0  0  0  0  0  0  0  0  0
    2.8579   -2.4750    0.0000 O   0  0  0  0  0  0  0  0  0  0  0  0
    0.7145   -0.4125    0.0000 N   0  0  0  0  0  0  0  0  0  0  0  0
    0.0000    0.0000    0.0000 C   0  0  0  0  0  0  0  0  0  0  0  0
    0.0000    0.8250    0.0000 C   0  0  0  0  0  0  0  0  0  0  0  0
    0.7145    1.2375    0.0000 C   0  0  1  0  0  0  0  0  0  0  0  0
    0.1842    1.8695    0.0000 N   0  0  0  0  0  0  0  0  0  0  0  0
    1.2448    1.8695    0.0000 O   0  0  0  0  0  0  0  0  0  0  0  0
    1.4289    0.8250    0.0000 N   0  0  0  0  0  0  0  0  0  0  0  0
    1.4289    0.0000    0.0000 C   0  0  0  0  0  0  0  0  0  0  0  0
    2.1434   -0.4125    0.0000 O   0  0  0  0  0  0  0  0  0  0  0  0
  1  2  2  0  0  0  0
  2  3  1  0  0  0  0
  2  4  1  0  0  0  0
  4  5  1  0  0  0  0
  4  6  1  0  0  0  0
  6  7  1  0  0  0  0
  7  8  1  0  0  0  0
  8  9  1  1  0  0  0
  8 10  1  0  0  0  0
 10 11  1  0  0  0  0
 11 12  2  0  0  0  0
 11 13  1  0  0  0  0
 14 13  1  1  0  0  0
 14 15  1  0  0  0  0
 15 16  2  0  0  0  0
 16 17  1  0  0  0  0
 17 18  1  0  0  0  0
 18 19  1  0  0  0  0
 14 19  1  0  0  0  0
 19 20  1  6  0  0  0
 20 21  1  0  0  0  0
 20 22  2  0  0  0  0
 17 23  1  6  0  0  0
 23 24  1  0  0  0  0
 24 25  2  0  0  0  0
 25 26  1  0  0  0  0
 26 27  1  6  0  0  0
 26 28  1  1  0  0  0
 26 29  1  0  0  0  0
 29 30  1  0  0  0  0
 23 30  1  0  0  0  0
 30 31  2  0  0  0  0
M  END
> <DRUGBANK_ID>
DB04649

> <DRUG_GROUPS>
experimental

> <GENERIC_NAME>
TETRAHEDRAL INTERMEDIATE OF BLASTICIDIN S

> <CHEMICAL_FORMULA>
C17H28N8O6

> <MOLECULAR_WEIGHT>
440.4542

> <EXACT_MASS>
440.213180668

> <IUPAC_NAME>
(2S,3S,6R)-6-[(4S)-4-amino-4-hydroxy-2-oxo-1,2,3,4-tetrahydropyrimidin-1-yl]-3-[(3S)-3-amino-5-(1-methylcarbamimidamido)pentanamido]-3,6-dihydro-2H-pyran-2-carboxylic acid

> <IUPAC_TRADITIONAL_NAME>
(2S,3S,6R)-6-[(4S)-4-amino-4-hydroxy-2-oxo-3H-pyrimidin-1-yl]-3-[(3S)-3-amino-5-(1-methylcarbamimidamido)pentanamido]-3,6-dihydro-2H-pyran-2-carboxylic acid

> <INCHI_IDENTIFIER>
InChI=1S/C17H28N8O6/c1-24(15(19)20)6-4-9(18)8-11(26)22-10-2-3-12(31-13(10)14(27)28)25-7-5-17(21,30)23-16(25)29/h2-3,5,7,9-10,12-13,30H,4,6,8,18,21H2,1H3,(H3,19,20)(H,22,26)(H,23,29)(H,27,28)/t9-,10-,12+,13-,17-/m0/s1

> <INCHI_KEY>
InChIKey=MVFPGTZTOAHVBP-HXYLPHSESA-N

> <SMILES>
CN(CC[C@H](N)CC(=O)N[C@H]1C=C[C@@H](O[C@@H]1C(O)=O)N1C=C[C@@](N)(O)NC1=O)C(N)=N

> <JCHEM_ACCEPTOR_COUNT>
11

> <JCHEM_DONOR_COUNT>
8

> <JCHEM_ACIDIC_PKA>
3.33

> <JCHEM_BASIC_PKA>
12.25

> <JCHEM_PHYSIOLOGICAL_CHARGE>
1

> <ALOGPS_LOGP>
-3.2

> <JCHEM_LOGP>
-5.3

> <ALOGPS_LOGS>
-2.8

> <JCHEM_POLARIZABILITY>
42.79

> <JCHEM_POLAR_SURFACE_AREA>
233.35

> <JCHEM_REFRACTIVITY>
119.33

> <JCHEM_ROTATABLE_BOND_COUNT>
8

> <ALOGPS_SOLUBILITY>
6.59e-01 g/l __ 

$$$$
