
  Mrv0541 02231218012D          

 65 70  0  0  1  0            999 V2000
    3.0693    0.4660    0.0000 Si   0  0  0  0  0  0  0  0  0  0  0  0
    9.9568   -3.0831    0.0000 O    0  0  0  0  0  0  0  0  0  0  0  0
   11.7385   -0.7991    0.0000 O    0  0  0  0  0  0  0  0  0  0  0  0
   11.4136    0.8111    0.0000 O    0  0  0  0  0  0  0  0  0  0  0  0
    9.3331   -0.7175    0.0000 O    0  0  0  0  0  0  0  0  0  0  0  0
    3.7790    0.8868    0.0000 O    0  0  0  0  0  0  0  0  0  0  0  0
    7.1075   -0.9027    0.0000 O    0  0  0  0  0  0  0  0  0  0  0  0
    7.2786   -0.3525    0.0000 O    0  0  0  0  0  0  0  0  0  0  0  0
   11.3032   -3.5619    0.0000 O    0  0  0  0  0  0  0  0  0  0  0  0
    5.2851    3.4544    0.0000 O    0  0  0  0  0  0  0  0  0  0  0  0
    5.2802    0.5246    0.0000 O    0  0  0  0  0  0  0  0  0  0  0  0
    8.7253    2.4083    0.0000 O    0  0  0  0  0  0  0  0  0  0  0  0
    7.8641    3.7278    0.0000 O    0  0  0  0  0  0  0  0  0  0  0  0
    8.0957    2.4895    0.0000 O    0  0  0  0  0  0  0  0  0  0  0  0
    5.2851    1.7473    0.0000 N    0  0  0  0  0  0  0  0  0  0  0  0
    7.4822    3.7801    0.0000 N    0  0  0  0  0  0  0  0  0  0  0  0
   10.8613   -1.7708    0.0000 C    0  0  2  0  0  0  0  0  0  0  0  0
   10.9271   -0.9484    0.0000 C    0  0  1  0  0  0  0  0  0  0  0  0
   10.2333   -2.3058    0.0000 C    0  0  1  0  0  0  0  0  0  0  0  0
   10.3921   -0.3203    0.0000 C    0  0  1  0  0  0  0  0  0  0  0  0
    9.4109   -2.2400    0.0000 C    0  0  1  0  0  0  0  0  0  0  0  0
   10.6686    0.4570    0.0000 C    0  0  2  0  0  0  0  0  0  0  0  0
   11.3395   -2.4431    0.0000 C    0  0  0  0  0  0  0  0  0  0  0  0
    9.0567   -1.4949    0.0000 C    0  0  2  0  0  0  0  0  0  0  0  0
   10.1336    1.0850    0.0000 C    0  0  1  0  0  0  0  0  0  0  0  0
    9.7128    0.1478    0.0000 C    0  0  0  0  0  0  0  0  0  0  0  0
    8.7829   -2.7750    0.0000 C    0  0  0  0  0  0  0  0  0  0  0  0
    2.3597    0.0453    0.0000 C    0  0  0  0  0  0  0  0  0  0  0  0
    9.3562    1.3614    0.0000 C    0  0  0  0  0  0  0  0  0  0  0  0
    8.3116   -1.8491    0.0000 C    0  0  0  0  0  0  0  0  0  0  0  0
   10.1994    1.9073    0.0000 C    0  0  0  0  0  0  0  0  0  0  0  0
   10.4919   -3.7111    0.0000 C    0  0  0  0  0  0  0  0  0  0  0  0
    1.9389    0.7550    0.0000 C    0  0  0  0  0  0  0  0  0  0  0  0
    2.7804   -0.6644    0.0000 C    0  0  0  0  0  0  0  0  0  0  0  0
    1.6500   -0.3755    0.0000 C    0  0  0  0  0  0  0  0  0  0  0  0
    2.6486    1.1757    0.0000 C    0  0  0  0  0  0  0  0  0  0  0  0
    3.4901   -0.2436    0.0000 C    0  0  0  0  0  0  0  0  0  0  0  0
    7.9574   -1.1039    0.0000 C    0  0  0  0  0  0  0  0  0  0  0  0
    6.4282   -0.4345    0.0000 C    0  0  1  0  0  0  0  0  0  0  0  0
    9.5201    2.3755    0.0000 C    0  0  0  0  0  0  0  0  0  0  0  0
    8.7981   -0.0895    0.0000 C    0  0  0  0  0  0  0  0  0  0  0  0
    6.7238    0.9166    0.0000 C    0  0  0  0  0  0  0  0  0  0  0  0
    6.7371    1.7758    0.0000 C    0  0  0  0  0  0  0  0  0  0  0  0
    3.7694    1.7117    0.0000 C    0  0  0  0  0  0  0  0  0  0  0  0
   10.2154   -4.4884    0.0000 C    0  0  0  0  0  0  0  0  0  0  0  0
    6.0861    0.3482    0.0000 C    0  0  0  0  0  0  0  0  0  0  0  0
    7.4648    0.4812    0.0000 C    0  0  0  0  0  0  0  0  0  0  0  0
    6.0227    2.1883    0.0000 C    0  0  0  0  0  0  0  0  0  0  0  0
    4.5377    2.1712    0.0000 C    0  0  0  0  0  0  0  0  0  0  0  0
    7.4516    2.1883    0.0000 C    0  0  0  0  0  0  0  0  0  0  0  0
    8.2089    0.9109    0.0000 C    0  0  0  0  0  0  0  0  0  0  0  0
    6.0227    3.0133    0.0000 C    0  0  0  0  0  0  0  0  0  0  0  0
    5.6059   -0.3687    0.0000 C    0  0  0  0  0  0  0  0  0  0  0  0
    8.2023    1.7702    0.0000 C    0  0  0  0  0  0  0  0  0  0  0  0
    9.5859    3.1979    0.0000 C    0  0  0  0  0  0  0  0  0  0  0  0
    4.5377    3.0305    0.0000 C    0  0  0  0  0  0  0  0  0  0  0  0
    6.7371    3.4258    0.0000 C    0  0  0  0  0  0  0  0  0  0  0  0
    7.4516    3.0133    0.0000 C    0  0  0  0  0  0  0  0  0  0  0  0
    2.9908    2.1532    0.0000 C    0  0  0  0  0  0  0  0  0  0  0  0
    3.7694    3.4900    0.0000 C    0  0  0  0  0  0  0  0  0  0  0  0
    8.9066    3.6661    0.0000 C    0  0  0  0  0  0  0  0  0  0  0  0
    8.9250    0.5011    0.0000 C    0  0  0  0  0  0  0  0  0  0  0  0
    2.9908    3.0484    0.0000 C    0  0  0  0  0  0  0  0  0  0  0  0
    8.1615    3.3119    0.0000 C    0  0  0  0  0  0  0  0  0  0  0  0
    8.9724    4.4884    0.0000 C    0  0  0  0  0  0  0  0  0  0  0  0
  1  6  1  0  0  0  0
  1 28  1  0  0  0  0
  1 36  1  0  0  0  0
  1 37  1  0  0  0  0
 19  2  1  6  0  0  0
  2 32  1  0  0  0  0
 18  3  1  1  0  0  0
 22  4  1  6  0  0  0
 24  5  1  6  0  0  0
  5 41  1  0  0  0  0
  6 44  1  0  0  0  0
  7 38  1  0  0  0  0
  7 39  1  0  0  0  0
  8 39  1  0  0  0  0
  8 47  1  0  0  0  0
  9 32  2  0  0  0  0
 10 52  1  0  0  0  0
 10 56  1  0  0  0  0
 11 46  2  0  0  0  0
 12 54  1  0  0  0  0
 13 58  2  0  0  0  0
 14 64  2  0  0  0  0
 15 48  1  0  0  0  0
 15 49  1  0  0  0  0
 16 57  2  3  0  0  0
 16 64  1  0  0  0  0
 17 18  1  0  0  0  0
 17 19  1  0  0  0  0
 17 23  1  1  0  0  0
 18 20  1  0  0  0  0
 19 21  1  0  0  0  0
 20 22  1  0  0  0  0
 20 26  1  6  0  0  0
 21 24  1  0  0  0  0
 21 27  1  6  0  0  0
 22 25  1  0  0  0  0
 24 30  1  0  0  0  0
 25 29  1  1  0  0  0
 25 31  1  0  0  0  0
 28 33  1  0  0  0  0
 28 34  1  0  0  0  0
 28 35  1  0  0  0  0
 30 38  2  0  0  0  0
 31 40  2  0  0  0  0
 32 45  1  0  0  0  0
 39 46  1  0  0  0  0
 39 53  1  1  0  0  0
 40 55  1  0  0  0  0
 42 43  1  0  0  0  0
 42 46  1  0  0  0  0
 42 47  2  0  0  0  0
 43 48  1  0  0  0  0
 43 50  2  0  0  0  0
 44 49  1  0  0  0  0
 44 59  2  0  0  0  0
 47 51  1  0  0  0  0
 48 52  2  0  0  0  0
 49 56  2  0  0  0  0
 50 54  1  0  0  0  0
 50 58  1  0  0  0  0
 51 54  2  0  0  0  0
 51 62  1  0  0  0  0
 52 57  1  0  0  0  0
 55 61  2  0  0  0  0
 56 60  1  0  0  0  0
 57 58  1  0  0  0  0
 59 63  1  0  0  0  0
 60 63  2  0  0  0  0
 61 64  1  0  0  0  0
 61 65  1  0  0  0  0
M  END
> <DRUGBANK_ID>
DB04934

> <DRUG_GROUPS>
investigational

> <GENERIC_NAME>
Benzoxazinorifamycin

> <SYNONYMS>


> <BRANDS>


> <CHEMICAL_FORMULA>
C49H62N2O13Si

> <MOLECULAR_WEIGHT>
915.1077

> <EXACT_MASS>
914.402116613

> <IUPAC_NAME>
(7S,11S,12R,13S,14R,15R,16R,17S,18S)-32-[(tert-butyldimethylsilyl)oxy]-2,15,17-trihydroxy-11-methoxy-3,7,12,14,16,18,22-heptamethyl-6,23,37-trioxo-8,27,38-trioxa-24,34-diazahexacyclo[23.11.1.1^{4,7}.0^{5,36}.0^{26,35}.0^{28,33}]octatriaconta-1,3,5(36),9,19,21,24,26(35),28,30,32-undecaen-13-yl acetate

> <IUPAC_TRADITIONAL_NAME>
(7S,11S,12R,13S,14R,15R,16R,17S,18S)-32-[(tert-butyldimethylsilyl)oxy]-2,15,17-trihydroxy-11-methoxy-3,7,12,14,16,18,22-heptamethyl-6,23,37-trioxo-8,27,38-trioxa-24,34-diazahexacyclo[23.11.1.1^{4,7}.0^{5,36}.0^{26,35}.0^{28,33}]octatriaconta-1,3,5(36),9,19,21,24,26(35),28,30,32-undecaen-13-yl acetate

> <INCHI_IDENTIFIER>
InChI=1S/C49H62N2O13Si/c1-23-17-15-18-24(2)47(58)51-38-42(56)34-33(37-45(38)62-31-19-16-20-32(36(31)50-37)64-65(13,14)48(8,9)10)35-44(28(6)41(34)55)63-49(11,46(35)57)60-22-21-30(59-12)25(3)43(61-29(7)52)27(5)40(54)26(4)39(23)53/h15-23,25-27,30,39-40,43,50,53-55H,1-14H3/b17-15+,22-21+,24-18-,51-38+/t23-,25+,26+,27+,30-,39-,40+,43+,49-/m0/s1

> <INCHI_KEY>
InChIKey=CRYHGQHDLPBRAY-CGRNWXITSA-N

> <SMILES>
CO[C@H]1\C=C\O[C@@]2(C)OC3=C(C2=O)C2=C(C(O)=C3C)C(=O)C(=NC(=O)\C(C)=C/C=C/[C@H](C)[C@H](O)[C@@H](C)[C@@H](O)[C@@H](C)[C@H](OC(=O)C)[C@@H]1C)C1=C2NC2=C(C=CC=C2O[Si](C)(C)C(C)(C)C)O1

> <JCHEM_ACCEPTOR_COUNT>
14

> <JCHEM_DONOR_COUNT>
4

> <JCHEM_ACIDIC_PKA>
6.95

> <JCHEM_BASIC_PKA>
1.14

> <JCHEM_PHYSIOLOGICAL_CHARGE>
-1

> <ALOGPS_LOGP>
6.32

> <JCHEM_LOGP>
6.25

> <ALOGPS_LOGS>
-5.6

> <JCHEM_POLARIZABILITY>
95.82

> <JCHEM_POLAR_SURFACE_AREA>
208.74

> <JCHEM_REFRACTIVITY>
245.93

> <JCHEM_ROTATABLE_BOND_COUNT>
6

> <ALOGPS_SOLUBILITY>
2.28e-03 g/l __ 

$$$$
