
  Mrv0541 02231217372D          

  6  5  0  0  0  0            999 V2000
    1.6500   -1.4289    0.0000 O   0  0  0  0  0  0  0  0  0  0  0  0
    1.2375   -0.7145    0.0000 S   0  0  0  0  0  0  0  0  0  0  0  0
    1.9520   -0.3020    0.0000 O   0  0  0  0  0  0  0  0  0  0  0  0
    0.5230   -1.1270    0.0000 O   0  0  0  0  0  0  0  0  0  0  0  0
    0.8250    0.0000    0.0000 C   0  0  0  0  0  0  0  0  0  0  0  0
    0.0000    0.0000    0.0000 C   0  0  0  0  0  0  0  0  0  0  0  0
  1  2  1  0  0  0  0
  2  3  2  0  0  0  0
  2  4  2  0  0  0  0
  2  5  1  0  0  0  0
  5  6  2  0  0  0  0
M  END
> <DRUGBANK_ID>
DB04359

> <DRUG_GROUPS>
experimental

> <GENERIC_NAME>
Vinylsulphonic Acid

> <CHEMICAL_FORMULA>
C2H4O3S

> <MOLECULAR_WEIGHT>
108.116

> <EXACT_MASS>
107.988114684

> <IUPAC_NAME>
ethenesulfonic acid

> <IUPAC_TRADITIONAL_NAME>
vinylsulphonic acid

> <INCHI_IDENTIFIER>
InChI=1S/C2H4O3S/c1-2-6(3,4)5/h2H,1H2,(H,3,4,5)

> <INCHI_KEY>
InChIKey=NLVXSWCKKBEXTG-UHFFFAOYSA-N

> <SMILES>
OS(=O)(=O)C=C

> <JCHEM_ACCEPTOR_COUNT>
3

> <JCHEM_DONOR_COUNT>
1

> <JCHEM_ACIDIC_PKA>
-1.3

> <JCHEM_PHYSIOLOGICAL_CHARGE>
-1

> <ALOGPS_LOGP>
-1.9

> <JCHEM_LOGP>
-0.23

> <ALOGPS_LOGS>
-0.73

> <JCHEM_POLARIZABILITY>
8.59

> <JCHEM_POLAR_SURFACE_AREA>
54.37

> <JCHEM_REFRACTIVITY>
20.69

> <JCHEM_ROTATABLE_BOND_COUNT>
1

> <ALOGPS_SOLUBILITY>
2.02e+01 g/l __ 

$$$$
