
  Mrv0541 02231217312D          

 15 16  0  0  1  0            999 V2000
    2.2428   -2.5916    0.0000 N   0  0  0  0  0  0  0  0  0  0  0  0
    1.4358   -2.7631    0.0000 C   0  0  1  0  0  0  0  0  0  0  0  0
    0.8838   -2.1500    0.0000 C   0  0  0  0  0  0  0  0  0  0  0  0
    1.1387   -1.3654    0.0000 C   0  0  0  0  0  0  0  0  0  0  0  0
    0.6538   -0.6979    0.0000 C   0  0  0  0  0  0  0  0  0  0  0  0
    1.1387   -0.0305    0.0000 N   0  0  0  0  0  0  0  0  0  0  0  0
    1.9233   -0.2854    0.0000 C   0  0  0  0  0  0  0  0  0  0  0  0
    2.6378    0.1271    0.0000 N   0  0  0  0  0  0  0  0  0  0  0  0
    3.3523   -0.2854    0.0000 C   0  0  0  0  0  0  0  0  0  0  0  0
    3.3523   -1.1104    0.0000 C   0  0  0  0  0  0  0  0  0  0  0  0
    2.6378   -1.5229    0.0000 C   0  0  0  0  0  0  0  0  0  0  0  0
    1.9233   -1.1104    0.0000 C   0  0  0  0  0  0  0  0  0  0  0  0
    1.1809   -3.5477    0.0000 C   0  0  0  0  0  0  0  0  0  0  0  0
    1.7329   -4.1608    0.0000 O   0  0  0  0  0  0  0  0  0  0  0  0
    0.3739   -3.7192    0.0000 O   0  0  0  0  0  0  0  0  0  0  0  0
  2  1  1  6  0  0  0
  2  3  1  0  0  0  0
  3  4  1  0  0  0  0
  4  5  4  0  0  0  0
  5  6  4  0  0  0  0
  6  7  4  0  0  0  0
  7  8  4  0  0  0  0
  8  9  4  0  0  0  0
  9 10  4  0  0  0  0
 10 11  4  0  0  0  0
 11 12  4  0  0  0  0
  4 12  4  0  0  0  0
  7 12  4  0  0  0  0
  2 13  1  0  0  0  0
 13 14  1  0  0  0  0
 13 15  2  0  0  0  0
M  END
> <DRUGBANK_ID>
DB04206

> <DRUG_GROUPS>
experimental

> <GENERIC_NAME>
Nz2-Tryptophan

> <CHEMICAL_FORMULA>
C10H10N3O2

> <MOLECULAR_WEIGHT>
204.2053

> <EXACT_MASS>
204.077301579

> <IUPAC_NAME>
(2S)-2-amino-3-{pyrrolo[2,3-b]pyridin-3-yl}propanoic acid

> <IUPAC_TRADITIONAL_NAME>
nz2-tryptophan

> <SMILES>
N[C@@H](Cc1cnc2ncccc12)C(O)=O

> <JCHEM_ACCEPTOR_COUNT>
5

> <JCHEM_DONOR_COUNT>
2

> <JCHEM_ACIDIC_PKA>
2.07

> <JCHEM_BASIC_PKA>
9.29

> <JCHEM_PHYSIOLOGICAL_CHARGE>
0

> <ALOGPS_LOGP>
-2.1

> <JCHEM_LOGP>
-2.2

> <ALOGPS_LOGS>
-1.6

> <JCHEM_POLARIZABILITY>
20.09

> <JCHEM_POLAR_SURFACE_AREA>
89.1

> <JCHEM_REFRACTIVITY>
54.11

> <JCHEM_ROTATABLE_BOND_COUNT>
3

> <ALOGPS_SOLUBILITY>
5.20e+00 g/l __ 

$$$$
