
  Mrv0541 02231217372D          

 38 41  0  0  1  0            999 V2000
   -8.1072    3.5972    0.0000 C   0  0  0  0  0  0  0  0  0  0  0  0
   -8.7203    3.0452    0.0000 C   0  0  0  0  0  0  0  0  0  0  0  0
   -8.6341    2.2247    0.0000 C   0  0  0  0  0  0  0  0  0  0  0  0
   -7.9196    1.8122    0.0000 C   0  0  0  0  0  0  0  0  0  0  0  0
   -7.2052    2.2247    0.0000 C   0  0  0  0  0  0  0  0  0  0  0  0
   -6.4907    1.8122    0.0000 O   0  0  0  0  0  0  0  0  0  0  0  0
   -5.7762    2.2247    0.0000 P   0  0  2  0  0  0  0  0  0  0  0  0
   -6.1887    2.9392    0.0000 O   0  5  0  0  0  0  0  0  0  0  0  0
   -5.3637    1.5103    0.0000 O   0  0  0  0  0  0  0  0  0  0  0  0
   -5.0617    2.6372    0.0000 O   0  0  0  0  0  0  0  0  0  0  0  0
   -4.3473    2.2247    0.0000 P   0  0  1  0  0  0  0  0  0  0  0  0
   -3.9348    2.9392    0.0000 O   0  5  0  0  0  0  0  0  0  0  0  0
   -4.7598    1.5103    0.0000 O   0  0  0  0  0  0  0  0  0  0  0  0
   -3.6328    1.8122    0.0000 O   0  0  0  0  0  0  0  0  0  0  0  0
   -2.9183    2.2247    0.0000 C   0  0  0  0  0  0  0  0  0  0  0  0
   -2.2039    1.8122    0.0000 C   0  0  2  0  0  0  0  0  0  0  0  0
   -1.4502    2.1478    0.0000 O   0  0  0  0  0  0  0  0  0  0  0  0
   -0.8981    1.5347    0.0000 C   0  0  2  0  0  0  0  0  0  0  0  0
   -1.3106    0.8202    0.0000 C   0  0  2  0  0  0  0  0  0  0  0  0
   -0.9751    0.0665    0.0000 O   0  0  0  0  0  0  0  0  0  0  0  0
   -2.1176    0.9917    0.0000 C   0  0  1  0  0  0  0  0  0  0  0  0
   -2.7307    0.4397    0.0000 O   0  0  0  0  0  0  0  0  0  0  0  0
   -0.0777    1.6209    0.0000 N   0  0  0  0  0  0  0  0  0  0  0  0
    0.4744    1.0078    0.0000 C   0  0  0  0  0  0  0  0  0  0  0  0
    1.2280    1.3434    0.0000 N   0  0  0  0  0  0  0  0  0  0  0  0
    1.1418    2.1639    0.0000 C   0  0  0  0  0  0  0  0  0  0  0  0
    0.3348    2.3354    0.0000 C   0  0  0  0  0  0  0  0  0  0  0  0
    0.0799    3.1200    0.0000 N   0  0  0  0  0  0  0  0  0  0  0  0
    0.6319    3.7331    0.0000 C   0  0  0  0  0  0  0  0  0  0  0  0
    1.4389    3.5616    0.0000 N   0  0  0  0  0  0  0  0  0  0  0  0
    1.6938    2.7770    0.0000 C   0  0  0  0  0  0  0  0  0  0  0  0
    2.5008    2.6054    0.0000 N   0  0  0  0  0  0  0  0  0  0  0  0
   -9.3878    1.8892    0.0000 S   0  0  0  0  0  0  0  0  0  0  0  0
   -9.9398    2.5023    0.0000 C   0  0  0  0  0  0  0  0  0  0  0  0
   -9.5273    3.2167    0.0000 N   0  0  0  0  0  0  0  0  0  0  0  0
  -10.7603    2.4160    0.0000 C   0  0  0  0  0  0  0  0  0  0  0  0
  -11.2452    3.0835    0.0000 O   0  5  0  0  0  0  0  0  0  0  0  0
  -11.0958    1.6624    0.0000 O   0  0  0  0  0  0  0  0  0  0  0  0
  1  2  1  0  0  0  0
  2  3  2  0  0  0  0
  3  4  1  0  0  0  0
  4  5  1  0  0  0  0
  5  6  1  0  0  0  0
  7  6  1  1  0  0  0
  7  8  1  6  0  0  0
  7  9  2  0  0  0  0
  7 10  1  0  0  0  0
 11 10  1  6  0  0  0
 11 12  1  1  0  0  0
 11 13  2  0  0  0  0
 11 14  1  0  0  0  0
 14 15  1  0  0  0  0
 16 15  1  6  0  0  0
 16 17  1  0  0  0  0
 17 18  1  0  0  0  0
 18 19  1  0  0  0  0
 19 20  1  6  0  0  0
 19 21  1  0  0  0  0
 16 21  1  0  0  0  0
 21 22  1  1  0  0  0
 18 23  1  1  0  0  0
 23 24  1  0  0  0  0
 24 25  2  0  0  0  0
 25 26  1  0  0  0  0
 26 27  2  0  0  0  0
 23 27  1  0  0  0  0
 27 28  1  0  0  0  0
 28 29  2  0  0  0  0
 29 30  1  0  0  0  0
 30 31  2  0  0  0  0
 26 31  1  0  0  0  0
 31 32  1  0  0  0  0
  3 33  1  0  0  0  0
 33 34  1  0  0  0  0
 34 35  2  0  0  0  0
  2 35  1  0  0  0  0
 34 36  1  0  0  0  0
 36 37  1  0  0  0  0
 36 38  2  0  0  0  0
M  END
> <DRUGBANK_ID>
DB04362

> <DRUG_GROUPS>
experimental

> <GENERIC_NAME>
Adenosine Diphosphate 5-(Beta-Ethyl)-4-Methyl-Thiazole-2-Carboxylic Acid

> <CHEMICAL_FORMULA>
C17H19N6O12P2S

> <MOLECULAR_WEIGHT>
593.378

> <EXACT_MASS>
593.025688816

> <IUPAC_NAME>
5-(2-{[(S)-{[(S)-([(2S,3R,4R,5R)-5-(6-amino-9H-purin-9-yl)-3,4-dihydroxyoxolan-2-yl]methyl phosphonato)]oxy}phosphinato]oxy}ethyl)-4-methyl-1,3-thiazole-2-carboxylate

> <IUPAC_TRADITIONAL_NAME>
5-(2-{[(S)-[(S)-([(2S,3R,4R,5R)-5-(6-aminopurin-9-yl)-3,4-dihydroxyoxolan-2-yl]methyl phosphonato)]oxyphosphinato]oxy}ethyl)-4-methyl-1,3-thiazole-2-carboxylate

> <INCHI_IDENTIFIER>
InChI=1S/C17H22N6O12P2S/c1-7-9(38-15(22-7)17(26)27)2-3-32-36(28,29)35-37(30,31)33-4-8-11(24)12(25)16(34-8)23-6-21-10-13(18)19-5-20-14(10)23/h5-6,8,11-12,16,24-25H,2-4H2,1H3,(H,26,27)(H,28,29)(H,30,31)(H2,18,19,20)/p-3/t8-,11-,12+,16+/m0/s1

> <INCHI_KEY>
InChIKey=VGXBGQACJQRWLV-LQZWOCCTSA-K

> <SMILES>
CC1=C(CCO[P@]([O-])(=O)O[P@@]([O-])(=O)OC[C@@H]2O[C@H]([C@H](O)[C@H]2O)N2C=NC3=C2N=CN=C3N)SC(=N1)C([O-])=O

> <JCHEM_ACCEPTOR_COUNT>
14

> <JCHEM_DONOR_COUNT>
3

> <JCHEM_ACIDIC_PKA>
1.83

> <JCHEM_BASIC_PKA>
5

> <JCHEM_PHYSIOLOGICAL_CHARGE>
-3

> <ALOGPS_LOGP>
-0.5

> <JCHEM_LOGP>
-4.1

> <ALOGPS_LOGS>
-2.8

> <JCHEM_POLARIZABILITY>
50.65

> <JCHEM_POLAR_SURFACE_AREA>
280.28

> <JCHEM_REFRACTIVITY>
133.81

> <JCHEM_ROTATABLE_BOND_COUNT>
11

> <ALOGPS_SOLUBILITY>
1.05e+00 g/l __ 

$$$$
