
  Mrv0541 02231217402D          

 52 57  0  0  1  0            999 V2000
   -9.2881   -8.6625    0.0000 N    0  0  0  0  0  0  0  0  0  0  0  0
   -8.5737   -9.0750    0.0000 C    0  0  0  0  0  0  0  0  0  0  0  0
   -7.8592   -8.6625    0.0000 N    0  0  0  0  0  0  0  0  0  0  0  0
   -7.1447   -9.0750    0.0000 C    0  0  0  0  0  0  0  0  0  0  0  0
   -7.1447   -9.9000    0.0000 C    0  0  0  0  0  0  0  0  0  0  0  0
   -6.4302  -10.3125    0.0000 N    0  0  0  0  0  0  0  0  0  0  0  0
   -5.7158   -9.9000    0.0000 C    0  0  1  0  0  0  0  0  0  0  0  0
   -5.7158   -9.0750    0.0000 C    0  0  1  0  0  0  0  0  0  0  0  0
   -6.4302   -8.6625    0.0000 N    0  0  0  0  0  0  0  0  0  0  0  0
   -5.0013   -8.6625    0.0000 O    0  0  0  0  0  0  0  0  0  0  0  0
   -4.2868   -9.0750    0.0000 C    0  0  1  0  0  0  0  0  0  0  0  0
   -3.5724   -8.6625    0.0000 C    0  0  0  0  0  0  0  0  0  0  0  0
   -2.8579   -9.0750    0.0000 O    0  0  0  0  0  0  0  0  0  0  0  0
   -2.1434   -8.6625    0.0000 P    0  0  2  0  0  0  0  0  0  0  0  0
   -1.7309   -9.3770    0.0000 O    0  0  0  0  0  0  0  0  0  0  0  0
   -2.5559   -7.9480    0.0000 O    0  0  0  0  0  0  0  0  0  0  0  0
   -1.4289   -8.2500    0.0000 O    0  0  0  0  0  0  0  0  0  0  0  0
   -0.7145   -8.6625    0.0000 Mg   0  0  0  0  0  0  0  0  0  0  0  0
   -1.1270   -9.3770    0.0000 O    0  0  0  0  0  0  0  0  0  0  0  0
   -0.3020   -7.9480    0.0000 O    0  0  0  0  0  0  0  0  0  0  0  0
    0.0000   -9.0750    0.0000 O    0  0  0  0  0  0  0  0  0  0  0  0
    0.7145   -8.6625    0.0000 P    0  0  1  0  0  0  0  0  0  0  0  0
    1.1270   -9.3770    0.0000 O    0  0  0  0  0  0  0  0  0  0  0  0
    0.3020   -7.9480    0.0000 O    0  0  0  0  0  0  0  0  0  0  0  0
    1.4289   -8.2500    0.0000 O    0  0  0  0  0  0  0  0  0  0  0  0
    2.1434   -8.6625    0.0000 C    0  0  0  0  0  0  0  0  0  0  0  0
    2.8579   -8.2500    0.0000 C    0  0  2  0  0  0  0  0  0  0  0  0
    3.5724   -8.6625    0.0000 O    0  0  0  0  0  0  0  0  0  0  0  0
    4.2868   -8.2500    0.0000 C    0  0  2  0  0  0  0  0  0  0  0  0
    5.0013   -8.6625    0.0000 N    0  0  0  0  0  0  0  0  0  0  0  0
    5.7158   -8.2500    0.0000 C    0  0  0  0  0  0  0  0  0  0  0  0
    5.7158   -7.4250    0.0000 C    0  0  0  0  0  0  0  0  0  0  0  0
    5.0013   -7.0125    0.0000 N    0  0  0  0  0  0  0  0  0  0  0  0
    4.2868   -7.4250    0.0000 C    0  0  2  0  0  0  0  0  0  0  0  0
    3.5724   -7.0125    0.0000 C    0  0  0  0  0  0  0  0  0  0  0  0
    3.5724   -6.1875    0.0000 S    0  0  0  0  0  0  0  0  0  0  0  0
    2.8579   -5.7750    0.0000 W    0  0  0  0  0  0  0  0  0  0  0  0
    2.8579   -7.4250    0.0000 C    0  0  0  0  0  0  0  0  0  0  0  0
    2.1434   -7.0125    0.0000 S    0  0  0  0  0  0  0  0  0  0  0  0
    6.4302   -7.0125    0.0000 C    0  0  0  0  0  0  0  0  0  0  0  0
    6.4302   -6.1875    0.0000 O    0  0  0  0  0  0  0  0  0  0  0  0
    7.1447   -7.4250    0.0000 N    0  0  0  0  0  0  0  0  0  0  0  0
    7.1447   -8.2500    0.0000 C    0  0  0  0  0  0  0  0  0  0  0  0
    7.8592   -8.6625    0.0000 N    0  0  0  0  0  0  0  0  0  0  0  0
    6.4302   -8.6625    0.0000 N    0  0  0  0  0  0  0  0  0  0  0  0
   -4.2868   -9.9000    0.0000 C    0  0  0  0  0  0  0  0  0  0  0  0
   -3.5724  -10.3125    0.0000 S    0  0  0  0  0  0  0  0  0  0  0  0
   -5.0013  -10.3125    0.0000 C    0  0  0  0  0  0  0  0  0  0  0  0
   -5.0013  -11.1375    0.0000 S    0  0  0  0  0  0  0  0  0  0  0  0
   -7.8592  -10.3125    0.0000 C    0  0  0  0  0  0  0  0  0  0  0  0
   -7.8592  -11.1375    0.0000 O    0  0  0  0  0  0  0  0  0  0  0  0
   -8.5737   -9.9000    0.0000 N    0  0  0  0  0  0  0  0  0  0  0  0
  1  2  1  0  0  0  0
  2  3  2  0  0  0  0
  3  4  1  0  0  0  0
  4  5  2  0  0  0  0
  5  6  1  0  0  0  0
  7  6  1  1  0  0  0
  7  8  1  0  0  0  0
  8  9  1  0  0  0  0
  4  9  1  0  0  0  0
  8 10  1  1  0  0  0
 10 11  1  0  0  0  0
 11 12  1  1  0  0  0
 12 13  1  0  0  0  0
 14 13  1  6  0  0  0
 14 15  1  1  0  0  0
 14 16  2  0  0  0  0
 14 17  1  0  0  0  0
 17 18  1  0  0  0  0
 18 19  1  0  0  0  0
 18 20  1  0  0  0  0
 18 21  1  0  0  0  0
 22 21  1  1  0  0  0
 22 23  1  6  0  0  0
 22 24  2  0  0  0  0
 22 25  1  0  0  0  0
 25 26  1  0  0  0  0
 27 26  1  1  0  0  0
 27 28  1  0  0  0  0
 29 28  1  1  0  0  0
 29 30  1  0  0  0  0
 30 31  1  0  0  0  0
 31 32  2  0  0  0  0
 32 33  1  0  0  0  0
 34 33  1  1  0  0  0
 29 34  1  0  0  0  0
 34 35  1  0  0  0  0
 35 36  1  0  0  0  0
 36 37  1  0  0  0  0
 35 38  2  0  0  0  0
 27 38  1  0  0  0  0
 38 39  1  0  0  0  0
 32 40  1  0  0  0  0
 40 41  2  0  0  0  0
 40 42  1  0  0  0  0
 42 43  1  0  0  0  0
 43 44  1  0  0  0  0
 43 45  2  0  0  0  0
 31 45  1  0  0  0  0
 11 46  1  0  0  0  0
 46 47  1  0  0  0  0
 46 48  2  0  0  0  0
  7 48  1  0  0  0  0
 48 49  1  0  0  0  0
  5 50  1  0  0  0  0
 50 51  2  0  0  0  0
 50 52  1  0  0  0  0
  2 52  1  0  0  0  0
M  END
> <DRUGBANK_ID>
DB04428

> <DRUG_GROUPS>
experimental

> <GENERIC_NAME>
Tungstopterin Cofactor

> <SYNONYMS>


> <CHEMICAL_FORMULA>
C20H27MgN10O14P2S4W

> <MOLECULAR_WEIGHT>
1029.84

> <EXACT_MASS>
1028.942600857

> <IUPAC_NAME>
{[(5aS,8S,9aS)-2-amino-4-oxo-6,7-disulfanyl-3H,4H,5H,5aH,8H,9aH,10H-pyrano[3,2-g]pteridin-8-yl]methoxy}({[({[(5aS,8S,9aS)-2-amino-4-oxo-7-sulfanyl-6-(tungsteniosulfanyl)-3H,4H,5H,5aH,8H,9aH,10H-pyrano[3,2-g]pteridin-8-yl]methoxy}(hydroxy)phosphoryl)oxy]dihydroxymagnesio}oxy)phosphinic acid

> <IUPAC_TRADITIONAL_NAME>
[(5aS,8S,9aS)-2-amino-4-oxo-6,7-disulfanyl-3H,5H,5aH,8H,9aH,10H-pyrano[3,2-g]pteridin-8-yl]methoxy[({[(5aS,8S,9aS)-2-amino-4-oxo-7-sulfanyl-6-(tungsteniosulfanyl)-3H,5H,5aH,8H,9aH,10H-pyrano[3,2-g]pteridin-8-yl]methoxy(hydroxy)phosphoryl}oxy)dihydroxymagnesio]oxyphosphinic acid

> <INCHI_IDENTIFIER>
InChI=1S/2C10H14N5O6PS2.Mg.2H2O.W/c2*11-10-14-7-4(8(16)15-10)12-3-6(24)5(23)2(21-9(3)13-7)1-20-22(17,18)19;;;;/h2*2-3,9,12,23-24H,1H2,(H2,17,18,19)(H4,11,13,14,15,16);;2*1H2;/q;;+4;;;+1/p-5/t2*2-,3+,9-;;;;/m00..../s1

> <INCHI_KEY>
InChIKey=SAWHEYVWORXKNX-MEIWGLHLSA-I

> <SMILES>
NC1=NC2=C(N[C@H]3[C@@H](N2)O[C@@H](CO[P@](O)(=O)O[Mg](O)(O)O[P@@](O)(=O)OC[C@@H]2O[C@@H]4NC5=C(N[C@@H]4C(S[W])=C2S)C(=O)NC(N)=N5)C(S)=C3S)C(=O)N1

> <JCHEM_ACCEPTOR_COUNT>
18

> <JCHEM_DONOR_COUNT>
15

> <JCHEM_ACIDIC_PKA>
2.73

> <JCHEM_BASIC_PKA>
4.36

> <JCHEM_PHYSIOLOGICAL_CHARGE>
-4

> <ALOGPS_LOGP>
0.72

> <JCHEM_LOGP>
-7.4

> <ALOGPS_LOGS>
-3

> <JCHEM_POLARIZABILITY>
72.68

> <JCHEM_POLAR_SURFACE_AREA>
353.52

> <JCHEM_REFRACTIVITY>
199.73

> <JCHEM_ROTATABLE_BOND_COUNT>
11

> <ALOGPS_SOLUBILITY>
1.08e+00 g/l __ 

$$$$
