
  Mrv0541 02231217492D          

 61 61  0  0  1  0            999 V2000
  -11.9759    0.8933    0.0000 C   0  0  0  0  0  0  0  0  0  0  0  0
  -11.2188    1.2212    0.0000 C   0  0  0  0  0  0  0  0  0  0  0  0
  -10.5564    0.7294    0.0000 C   0  0  0  0  0  0  0  0  0  0  0  0
   -9.7993    1.0573    0.0000 C   0  0  0  0  0  0  0  0  0  0  0  0
   -9.1369    0.5655    0.0000 C   0  0  0  0  0  0  0  0  0  0  0  0
   -8.3798    0.8933    0.0000 C   0  0  0  0  0  0  0  0  0  0  0  0
   -7.7174    0.4016    0.0000 C   0  0  0  0  0  0  0  0  0  0  0  0
   -6.9603    0.7294    0.0000 C   0  0  0  0  0  0  0  0  0  0  0  0
   -6.2979    0.2377    0.0000 C   0  0  0  0  0  0  0  0  0  0  0  0
   -5.5408    0.5655    0.0000 C   0  0  0  0  0  0  0  0  0  0  0  0
   -4.8784    0.0738    0.0000 C   0  0  0  0  0  0  0  0  0  0  0  0
   -4.1213    0.4016    0.0000 C   0  0  0  0  0  0  0  0  0  0  0  0
   -3.4589   -0.0901    0.0000 C   0  0  0  0  0  0  0  0  0  0  0  0
   -2.7018    0.2377    0.0000 C   0  0  0  0  0  0  0  0  0  0  0  0
   -2.0393   -0.2540    0.0000 C   0  0  0  0  0  0  0  0  0  0  0  0
   -1.2823    0.0738    0.0000 C   0  0  1  0  0  0  0  0  0  0  0  0
   -1.1876    0.8933    0.0000 O   0  0  0  0  0  0  0  0  0  0  0  0
   -0.6198   -0.4179    0.0000 C   0  0  2  0  0  0  0  0  0  0  0  0
   -0.7145   -1.2375    0.0000 C   0  0  0  0  0  0  0  0  0  0  0  0
   -0.0520   -1.7292    0.0000 O   0  0  0  0  0  0  0  0  0  0  0  0
   -0.1467   -2.5488    0.0000 C   0  0  2  0  0  0  0  0  0  0  0  0
    0.5158   -3.0405    0.0000 O   0  0  0  0  0  0  0  0  0  0  0  0
    0.4211   -3.8601    0.0000 C   0  0  2  0  0  0  0  0  0  0  0  0
    1.0836   -4.3518    0.0000 C   0  0  0  0  0  0  0  0  0  0  0  0
    0.9889   -5.1714    0.0000 O   0  0  0  0  0  0  0  0  0  0  0  0
   -0.3359   -4.1879    0.0000 C   0  0  2  0  0  0  0  0  0  0  0  0
   -0.4306   -5.0075    0.0000 O   0  0  0  0  0  0  0  0  0  0  0  0
   -0.9984   -3.6962    0.0000 C   0  0  2  0  0  0  0  0  0  0  0  0
   -1.7554   -4.0240    0.0000 O   0  0  0  0  0  0  0  0  0  0  0  0
   -2.4179   -3.5323    0.0000 S   0  0  0  0  0  0  0  0  0  0  0  0
   -1.9262   -2.8698    0.0000 O   0  0  0  0  0  0  0  0  0  0  0  0
   -2.9096   -4.1947    0.0000 O   0  0  0  0  0  0  0  0  0  0  0  0
   -3.0803   -3.0405    0.0000 O   0  0  0  0  0  0  0  0  0  0  0  0
   -0.9037   -2.8766    0.0000 C   0  0  1  0  0  0  0  0  0  0  0  0
   -1.5662   -2.3849    0.0000 O   0  0  0  0  0  0  0  0  0  0  0  0
    0.1372   -0.0901    0.0000 N   0  0  0  0  0  0  0  0  0  0  0  0
    0.7997   -0.5819    0.0000 C   0  0  0  0  0  0  0  0  0  0  0  0
    0.7050   -1.4014    0.0000 O   0  0  0  0  0  0  0  0  0  0  0  0
    1.5567   -0.2540    0.0000 C   0  0  0  0  0  0  0  0  0  0  0  0
    2.2192   -0.7458    0.0000 C   0  0  0  0  0  0  0  0  0  0  0  0
    2.9763   -0.4179    0.0000 C   0  0  0  0  0  0  0  0  0  0  0  0
    3.6387   -0.9097    0.0000 C   0  0  0  0  0  0  0  0  0  0  0  0
    4.3958   -0.5819    0.0000 C   0  0  0  0  0  0  0  0  0  0  0  0
    5.0582   -1.0736    0.0000 C   0  0  0  0  0  0  0  0  0  0  0  0
    5.8153   -0.7458    0.0000 C   0  0  0  0  0  0  0  0  0  0  0  0
    6.4777   -1.2375    0.0000 C   0  0  0  0  0  0  0  0  0  0  0  0
    7.2348   -0.9097    0.0000 C   0  0  0  0  0  0  0  0  0  0  0  0
    7.8972   -1.4014    0.0000 C   0  0  0  0  0  0  0  0  0  0  0  0
    8.6543   -1.0736    0.0000 C   0  0  0  0  0  0  0  0  0  0  0  0
    9.3167   -1.5653    0.0000 C   0  0  0  0  0  0  0  0  0  0  0  0
   10.0738   -1.2375    0.0000 C   0  0  0  0  0  0  0  0  0  0  0  0
   10.7362   -1.7292    0.0000 C   0  0  0  0  0  0  0  0  0  0  0  0
   11.4933   -1.4014    0.0000 C   0  0  0  0  0  0  0  0  0  0  0  0
   11.5879   -0.5819    0.0000 C   0  0  0  0  0  0  0  0  0  0  0  0
   12.3450   -0.2540    0.0000 C   0  0  0  0  0  0  0  0  0  0  0  0
   13.0075   -0.7458    0.0000 C   0  0  0  0  0  0  0  0  0  0  0  0
   13.7645   -0.4179    0.0000 C   0  0  0  0  0  0  0  0  0  0  0  0
   14.4270   -0.9097    0.0000 C   0  0  0  0  0  0  0  0  0  0  0  0
   15.1840   -0.5819    0.0000 C   0  0  0  0  0  0  0  0  0  0  0  0
   15.8465   -1.0736    0.0000 C   0  0  0  0  0  0  0  0  0  0  0  0
   16.6035   -0.7458    0.0000 C   0  0  0  0  0  0  0  0  0  0  0  0
  1  2  1  0  0  0  0
  2  3  1  0  0  0  0
  3  4  1  0  0  0  0
  4  5  1  0  0  0  0
  5  6  1  0  0  0  0
  6  7  1  0  0  0  0
  7  8  1  0  0  0  0
  8  9  1  0  0  0  0
  9 10  1  0  0  0  0
 10 11  1  0  0  0  0
 11 12  1  0  0  0  0
 12 13  1  0  0  0  0
 13 14  1  0  0  0  0
 14 15  2  0  0  0  0
 15 16  1  0  0  0  0
 16 17  1  1  0  0  0
 16 18  1  0  0  0  0
 18 19  1  0  0  0  0
 19 20  1  0  0  0  0
 21 20  1  6  0  0  0
 21 22  1  0  0  0  0
 22 23  1  0  0  0  0
 23 24  1  6  0  0  0
 24 25  1  0  0  0  0
 23 26  1  0  0  0  0
 26 27  1  6  0  0  0
 26 28  1  0  0  0  0
 28 29  1  6  0  0  0
 29 30  1  0  0  0  0
 30 31  1  0  0  0  0
 30 32  2  0  0  0  0
 30 33  2  0  0  0  0
 28 34  1  0  0  0  0
 21 34  1  0  0  0  0
 34 35  1  1  0  0  0
 18 36  1  1  0  0  0
 36 37  1  0  0  0  0
 37 38  2  0  0  0  0
 37 39  1  0  0  0  0
 39 40  1  0  0  0  0
 40 41  1  0  0  0  0
 41 42  1  0  0  0  0
 42 43  1  0  0  0  0
 43 44  1  0  0  0  0
 44 45  1  0  0  0  0
 45 46  1  0  0  0  0
 46 47  1  0  0  0  0
 47 48  1  0  0  0  0
 48 49  1  0  0  0  0
 49 50  1  0  0  0  0
 50 51  1  0  0  0  0
 51 52  1  0  0  0  0
 52 53  2  0  0  0  0
 53 54  1  0  0  0  0
 54 55  1  0  0  0  0
 55 56  1  0  0  0  0
 56 57  1  0  0  0  0
 57 58  1  0  0  0  0
 58 59  1  0  0  0  0
 59 60  1  0  0  0  0
 60 61  1  0  0  0  0
M  END
> <DRUGBANK_ID>
DB04661

> <DRUG_GROUPS>
experimental

> <GENERIC_NAME>
Cis-tetracosenoyl sulfatide

> <SYNONYMS>


> <CHEMICAL_FORMULA>
C48H91NO11S

> <MOLECULAR_WEIGHT>
890.301

> <EXACT_MASS>
889.631283449

> <IUPAC_NAME>
[(2R,3R,4S,5S,6R)-3,5-dihydroxy-2-{[(2S,3R,4E)-3-hydroxy-2-[(15Z)-tetracos-15-enamido]octadec-4-en-1-yl]oxy}-6-(hydroxymethyl)oxan-4-yl]oxidanesulfonic acid

> <IUPAC_TRADITIONAL_NAME>
[(2R,3R,4S,5S,6R)-3,5-dihydroxy-2-{[(2S,3R,4E)-3-hydroxy-2-[(15Z)-tetracos-15-enamido]octadec-4-en-1-yl]oxy}-6-(hydroxymethyl)oxan-4-yl]oxidanesulfonic acid

> <INCHI_IDENTIFIER>
InChI=1S/C48H91NO11S/c1-3-5-7-9-11-13-15-17-18-19-20-21-22-23-24-26-28-30-32-34-36-38-44(52)49-41(42(51)37-35-33-31-29-27-25-16-14-12-10-8-6-4-2)40-58-48-46(54)47(60-61(55,56)57)45(53)43(39-50)59-48/h17-18,35,37,41-43,45-48,50-51,53-54H,3-16,19-34,36,38-40H2,1-2H3,(H,49,52)(H,55,56,57)/b18-17-,37-35+/t41-,42+,43+,45-,46+,47-,48+/m0/s1

> <INCHI_KEY>
InChIKey=ZZQWQNAZXFNSEP-JCOQVFCVSA-N

> <SMILES>
CCCCCCCCCCCCC\C=C\[C@@H](O)[C@H](CO[C@@H]1O[C@H](CO)[C@H](O)[C@H](OS(O)(=O)=O)[C@H]1O)NC(=O)CCCCCCCCCCCCC\C=C/CCCCCCCC

> <JCHEM_ACCEPTOR_COUNT>
10

> <JCHEM_DONOR_COUNT>
6

> <JCHEM_ACIDIC_PKA>
-1.9

> <JCHEM_BASIC_PKA>
0.025

> <JCHEM_PHYSIOLOGICAL_CHARGE>
-1

> <ALOGPS_LOGP>
5.95

> <JCHEM_LOGP>
10.29

> <ALOGPS_LOGS>
-6.5

> <JCHEM_POLARIZABILITY>
108.71

> <JCHEM_POLAR_SURFACE_AREA>
192.08

> <JCHEM_REFRACTIVITY>
246.11

> <JCHEM_ROTATABLE_BOND_COUNT>
42

> <ALOGPS_SOLUBILITY>
2.72e-04 g/l __ 

$$$$
