B11
  Mrv0541 02231217482D          

 33 36  0  0  0  0            999 V2000
    4.4324    2.8221    0.0000 C   0  0  0  0  0  0  0  0  0  0  0  0
    5.1469    2.4096    0.0000 C   0  0  0  0  0  0  0  0  0  0  0  0
    5.1469    1.5846    0.0000 C   0  0  0  0  0  0  0  0  0  0  0  0
    4.4324    1.1721    0.0000 C   0  0  0  0  0  0  0  0  0  0  0  0
    3.7180    1.5846    0.0000 C   0  0  0  0  0  0  0  0  0  0  0  0
    3.7180    2.4096    0.0000 C   0  0  0  0  0  0  0  0  0  0  0  0
    3.0035    2.8221    0.0000 O   0  0  0  0  0  0  0  0  0  0  0  0
    3.0035    1.1721    0.0000 C   0  0  0  0  0  0  0  0  0  0  0  0
    3.0035    0.3471    0.0000 N   0  0  0  0  0  0  0  0  0  0  0  0
    2.2890   -0.0654    0.0000 C   0  0  0  0  0  0  0  0  0  0  0  0
    2.2890   -0.8904    0.0000 C   0  0  0  0  0  0  0  0  0  0  0  0
    1.5746   -1.3029    0.0000 C   0  0  0  0  0  0  0  0  0  0  0  0
    0.8601   -0.8904    0.0000 N   0  0  0  0  0  0  0  0  0  0  0  0
    0.8601   -0.0654    0.0000 C   0  0  0  0  0  0  0  0  0  0  0  0
    1.5746    0.3471    0.0000 C   0  0  0  0  0  0  0  0  0  0  0  0
    0.1456   -1.3029    0.0000 S   0  0  0  0  0  0  0  0  0  0  0  0
   -0.5689   -1.7154    0.0000 N   0  0  0  0  0  0  0  0  0  0  0  0
   -0.2669   -0.5885    0.0000 O   0  0  0  0  0  0  0  0  0  0  0  0
    0.5581   -2.0174    0.0000 O   0  0  0  0  0  0  0  0  0  0  0  0
   -1.2833   -1.3029    0.0000 C   0  0  0  0  0  0  0  0  0  0  0  0
   -1.9978   -1.7154    0.0000 C   0  0  0  0  0  0  0  0  0  0  0  0
   -2.7123   -1.3029    0.0000 C   0  0  0  0  0  0  0  0  0  0  0  0
   -2.7123   -0.4779    0.0000 C   0  0  0  0  0  0  0  0  0  0  0  0
   -1.9978   -0.0654    0.0000 C   0  0  0  0  0  0  0  0  0  0  0  0
   -1.2833   -0.4779    0.0000 C   0  0  0  0  0  0  0  0  0  0  0  0
   -3.4267   -1.7154    0.0000 O   0  0  0  0  0  0  0  0  0  0  0  0
   -4.1412   -1.3029    0.0000 C   0  0  0  0  0  0  0  0  0  0  0  0
   -4.8557   -1.7154    0.0000 C   0  0  0  0  0  0  0  0  0  0  0  0
   -5.5702   -1.3029    0.0000 C   0  0  0  0  0  0  0  0  0  0  0  0
   -5.5702   -0.4779    0.0000 C   0  0  0  0  0  0  0  0  0  0  0  0
   -4.8557   -0.0654    0.0000 C   0  0  0  0  0  0  0  0  0  0  0  0
   -4.1412   -0.4779    0.0000 C   0  0  0  0  0  0  0  0  0  0  0  0
   -6.2846   -0.0654    0.0000 F   0  0  0  0  0  0  0  0  0  0  0  0
  1  2  2  0  0  0  0
  1  6  1  0  0  0  0
  2  3  1  0  0  0  0
  3  4  2  0  0  0  0
  4  5  1  0  0  0  0
  5  6  2  0  0  0  0
  5  8  1  0  0  0  0
  6  7  1  0  0  0  0
  8  9  1  0  0  0  0
  9 10  1  0  0  0  0
 10 11  1  0  0  0  0
 10 15  1  0  0  0  0
 11 12  1  0  0  0  0
 12 13  1  0  0  0  0
 13 14  1  0  0  0  0
 13 16  1  0  0  0  0
 14 15  1  0  0  0  0
 16 17  1  0  0  0  0
 16 18  2  0  0  0  0
 16 19  2  0  0  0  0
 17 20  1  0  0  0  0
 20 21  2  0  0  0  0
 20 25  1  0  0  0  0
 21 22  1  0  0  0  0
 22 23  2  0  0  0  0
 22 26  1  0  0  0  0
 23 24  1  0  0  0  0
 24 25  2  0  0  0  0
 26 27  1  0  0  0  0
 27 28  2  0  0  0  0
 27 32  1  0  0  0  0
 28 29  1  0  0  0  0
 29 30  2  0  0  0  0
 30 31  1  0  0  0  0
 30 33  1  0  0  0  0
 31 32  2  0  0  0  0
M  END
> <DRUGBANK_ID>
DB04632

> <DRUG_GROUPS>
experimental

> <GENERIC_NAME>
4-(2-HYDROXYBENZYLAMINO)-N-(3-(4-FLUOROPHENOXY)PHENYL)PIPERIDINE-1-SULFONAMIDE

> <CHEMICAL_FORMULA>
C24H26FN3O4S

> <MOLECULAR_WEIGHT>
471.544

> <EXACT_MASS>
471.16280523

> <IUPAC_NAME>
N-[3-(4-fluorophenoxy)phenyl]-4-{[(2-hydroxyphenyl)methyl]amino}piperidine-1-sulfonamide

> <IUPAC_TRADITIONAL_NAME>
N-[3-(4-fluorophenoxy)phenyl]-4-{[(2-hydroxyphenyl)methyl]amino}piperidine-1-sulfonamide

> <INCHI_IDENTIFIER>
InChI=1S/C24H26FN3O4S/c25-19-8-10-22(11-9-19)32-23-6-3-5-21(16-23)27-33(30,31)28-14-12-20(13-15-28)26-17-18-4-1-2-7-24(18)29/h1-11,16,20,26-27,29H,12-15,17H2

> <INCHI_KEY>
InChIKey=JHHBGNIRSUTQAS-UHFFFAOYSA-N

> <SMILES>
OC1=C(CNC2CCN(CC2)S(=O)(=O)NC2=CC(OC3=CC=C(F)C=C3)=CC=C2)C=CC=C1

> <JCHEM_ACCEPTOR_COUNT>
5

> <JCHEM_DONOR_COUNT>
3

> <JCHEM_ACIDIC_PKA>
8.1

> <JCHEM_BASIC_PKA>
11

> <JCHEM_PHYSIOLOGICAL_CHARGE>
1

> <ALOGPS_LOGP>
3.37

> <JCHEM_LOGP>
1.86

> <ALOGPS_LOGS>
-4.2

> <JCHEM_POLARIZABILITY>
47.59

> <JCHEM_POLAR_SURFACE_AREA>
90.9

> <JCHEM_REFRACTIVITY>
124.52

> <JCHEM_ROTATABLE_BOND_COUNT>
6

> <ALOGPS_SOLUBILITY>
2.80e-02 g/l __ 

$$$$
