
  Mrv0541 08221306362D          

 93 90  0  0  1  0            999 V2000
    9.8191   -8.7029    0.0000 C    0  0  2  0  0  0  0  0  0  0  0  0
   10.5228   -9.1092    0.0000 C    0  0  2  0  0  0  0  0  0  0  0  0
   11.2373   -8.6967    0.0000 C    0  0  1  0  0  0  0  0  0  0  0  0
   11.2373   -7.8715    0.0000 C    0  0  2  0  0  0  0  0  0  0  0  0
   10.5337   -7.4652    0.0000 C    0  0  2  0  0  0  0  0  0  0  0  0
    9.8191   -7.8778    0.0000 O    0  0  0  0  0  0  0  0  0  0  0  0
    6.2574   -9.1144    0.0000 C    0  0  2  0  0  0  0  0  0  0  0  0
    6.2574   -9.9395    0.0000 C    0  0  2  0  0  0  0  0  0  0  0  0
    6.9719  -10.3521    0.0000 C    0  0  1  0  0  0  0  0  0  0  0  0
    7.6864   -9.9395    0.0000 C    0  0  2  0  0  0  0  0  0  0  0  0
    7.6864   -9.1144    0.0000 C    0  0  1  0  0  0  0  0  0  0  0  0
    6.9719   -8.7018    0.0000 O    0  0  0  0  0  0  0  0  0  0  0  0
    5.5428   -8.7018    0.0000 C    0  0  0  0  0  0  0  0  0  0  0  0
    8.4119   -8.6954    0.0000 O    0  0  0  0  0  0  0  0  0  0  0  0
    5.5428  -10.3521    0.0000 O    0  0  0  0  0  0  0  0  0  0  0  0
    8.4119  -10.3584    0.0000 N    0  0  0  0  0  0  0  0  0  0  0  0
    5.5428   -7.8769    0.0000 O    0  0  0  0  0  0  0  0  0  0  0  0
    4.8381   -7.4699    0.0000 C    0  0  0  0  0  0  0  0  0  0  0  0
    4.8382   -9.9451    0.0000 P    0  0  0  0  0  0  0  0  0  0  0  0
    4.1384  -10.3492    0.0000 O    0  5  0  0  0  0  0  0  0  0  0  0
    5.4216   -9.3617    0.0000 O    0  0  0  0  0  0  0  0  0  0  0  0
    4.2548   -9.3617    0.0000 O    0  5  0  0  0  0  0  0  0  0  0  0
    9.1222   -9.1054    0.0000 C    0  0  0  0  0  0  0  0  0  0  0  0
   10.5337   -6.6392    0.0000 O    0  0  0  0  0  0  0  0  0  0  0  0
   11.9584   -7.4552    0.0000 N    0  0  0  0  0  0  0  0  0  0  0  0
   10.5229   -9.9393    0.0000 O    0  0  0  0  0  0  0  0  0  0  0  0
   11.9629   -9.1156    0.0000 O    0  0  0  0  0  0  0  0  0  0  0  0
    8.4118  -11.3410    0.0000 C    0  0  0  0  0  0  0  0  0  0  0  0
    7.6902  -11.7573    0.0000 O    0  0  0  0  0  0  0  0  0  0  0  0
    9.8297   -6.2327    0.0000 P    0  0  0  0  0  0  0  0  0  0  0  0
    9.1304   -6.6365    0.0000 O    0  0  0  0  0  0  0  0  0  0  0  0
   10.4132   -5.6492    0.0000 O    0  5  0  0  0  0  0  0  0  0  0  0
    9.2463   -5.6492    0.0000 O    0  5  0  0  0  0  0  0  0  0  0  0
   12.6709   -7.8664    0.0000 C    0  0  0  0  0  0  0  0  0  0  0  0
   13.3666   -7.4646    0.0000 C    0  0  0  0  0  0  0  0  0  0  0  0
   14.0709   -7.8712    0.0000 C    0  0  0  0  0  0  0  0  0  0  0  0
   12.6712   -8.7016    0.0000 O    0  0  0  0  0  0  0  0  0  0  0  0
   14.0711   -8.7017    0.0000 O    0  0  0  0  0  0  0  0  0  0  0  0
    6.9719  -11.1703    0.0000 O    0  0  0  0  0  0  0  0  0  0  0  0
    6.2714  -11.5748    0.0000 C    0  0  0  0  0  0  0  0  0  0  0  0
    5.5763  -11.1735    0.0000 C    0  0  0  0  0  0  0  0  0  0  0  0
    4.8794  -11.5760    0.0000 C    0  0  2  0  0  0  0  0  0  0  0  0
    4.8793  -12.3991    0.0000 O    0  0  0  0  0  0  0  0  0  0  0  0
    5.5945  -12.8121    0.0000 C    0  0  0  0  0  0  0  0  0  0  0  0
    2.9744  -10.3790    0.0000 Na   0  3  0  0  0  0  0  0  0  0  0  0
    2.9458   -8.8993    0.0000 Na   0  3  0  0  0  0  0  0  0  0  0  0
    8.0365   -5.6427    0.0000 Na   0  3  0  0  0  0  0  0  0  0  0  0
   11.7672   -5.6854    0.0000 Na   0  3  0  0  0  0  0  0  0  0  0  0
   14.7706   -7.4671    0.0000 C    0  0  0  0  0  0  0  0  0  0  0  0
   15.5137   -7.8724    0.0000 C    0  0  0  0  0  0  0  0  0  0  0  0
   16.2282   -7.4599    0.0000 C    0  0  0  0  0  0  0  0  0  0  0  0
   16.9427   -7.8724    0.0000 C    0  0  0  0  0  0  0  0  0  0  0  0
   17.6571   -7.4599    0.0000 C    0  0  0  0  0  0  0  0  0  0  0  0
   18.3716   -7.8724    0.0000 C    0  0  0  0  0  0  0  0  0  0  0  0
   19.0861   -7.4599    0.0000 C    0  0  0  0  0  0  0  0  0  0  0  0
   19.8005   -7.8724    0.0000 C    0  0  0  0  0  0  0  0  0  0  0  0
   20.5150   -7.4599    0.0000 C    0  0  0  0  0  0  0  0  0  0  0  0
   21.2295   -7.8724    0.0000 C    0  0  0  0  0  0  0  0  0  0  0  0
   21.9439   -7.4599    0.0000 C    0  0  0  0  0  0  0  0  0  0  0  0
   11.9629   -9.9394    0.0000 C    0  0  0  0  0  0  0  0  0  0  0  0
   12.6774  -10.3519    0.0000 C    0  0  0  0  0  0  0  0  0  0  0  0
   13.3919   -9.9394    0.0000 C    0  0  0  0  0  0  0  0  0  0  0  0
   14.1063  -10.3519    0.0000 C    0  0  0  0  0  0  0  0  0  0  0  0
   14.8208   -9.9394    0.0000 C    0  0  0  0  0  0  0  0  0  0  0  0
   15.5353  -10.3519    0.0000 C    0  0  0  0  0  0  0  0  0  0  0  0
   16.2497   -9.9394    0.0000 C    0  0  0  0  0  0  0  0  0  0  0  0
   16.9642  -10.3519    0.0000 C    0  0  0  0  0  0  0  0  0  0  0  0
   17.6787   -9.9394    0.0000 C    0  0  0  0  0  0  0  0  0  0  0  0
   18.3932  -10.3519    0.0000 C    0  0  0  0  0  0  0  0  0  0  0  0
    9.1194  -11.7496    0.0000 C    0  0  0  0  0  0  0  0  0  0  0  0
    9.8338  -11.3371    0.0000 C    0  0  0  0  0  0  0  0  0  0  0  0
   10.5483  -11.7496    0.0000 C    0  0  0  0  0  0  0  0  0  0  0  0
   11.2628  -11.3371    0.0000 C    0  0  0  0  0  0  0  0  0  0  0  0
   11.9772  -11.7496    0.0000 C    0  0  0  0  0  0  0  0  0  0  0  0
   12.6917  -11.3371    0.0000 C    0  0  0  0  0  0  0  0  0  0  0  0
   13.4062  -11.7496    0.0000 C    0  0  0  0  0  0  0  0  0  0  0  0
   14.1207  -11.3371    0.0000 C    0  0  0  0  0  0  0  0  0  0  0  0
   14.8351  -11.7496    0.0000 C    0  0  0  0  0  0  0  0  0  0  0  0
   15.5496  -11.3371    0.0000 C    0  0  0  0  0  0  0  0  0  0  0  0
   16.3746  -11.3371    0.0000 C    0  0  0  0  0  0  0  0  0  0  0  0
   17.0891  -11.7496    0.0000 C    0  0  0  0  0  0  0  0  0  0  0  0
   17.8035  -11.3371    0.0000 C    0  0  0  0  0  0  0  0  0  0  0  0
   18.5180  -11.7496    0.0000 C    0  0  0  0  0  0  0  0  0  0  0  0
   19.2325  -11.3371    0.0000 C    0  0  0  0  0  0  0  0  0  0  0  0
   19.9469  -11.7496    0.0000 C    0  0  0  0  0  0  0  0  0  0  0  0
   20.6614  -11.3371    0.0000 C    0  0  0  0  0  0  0  0  0  0  0  0
    4.0486  -11.1685    0.0000 C    0  0  0  0  0  0  0  0  0  0  0  0
    3.3375  -11.5791    0.0000 C    0  0  0  0  0  0  0  0  0  0  0  0
    2.6231  -11.1666    0.0000 C    0  0  0  0  0  0  0  0  0  0  0  0
    1.9086  -11.5791    0.0000 C    0  0  0  0  0  0  0  0  0  0  0  0
    1.1941  -11.1666    0.0000 C    0  0  0  0  0  0  0  0  0  0  0  0
    0.4797  -11.5791    0.0000 C    0  0  0  0  0  0  0  0  0  0  0  0
   -0.2348  -11.1666    0.0000 C    0  0  0  0  0  0  0  0  0  0  0  0
  1  2  1  0  0  0  0
  2  3  1  0  0  0  0
  3  4  1  0  0  0  0
  4  5  1  0  0  0  0
  5  6  1  0  0  0  0
  1  6  1  0  0  0  0
  7  8  1  0  0  0  0
  8  9  1  0  0  0  0
  9 10  1  0  0  0  0
 10 11  1  0  0  0  0
 11 12  1  0  0  0  0
  7 12  1  0  0  0  0
  7 13  1  1  0  0  0
 11 14  1  1  0  0  0
  8 15  1  6  0  0  0
 10 16  1  6  0  0  0
 13 17  1  0  0  0  0
 17 18  1  0  0  0  0
 15 19  1  0  0  0  0
 19 20  1  0  0  0  0
 19 21  2  0  0  0  0
 19 22  1  0  0  0  0
 14 23  1  0  0  0  0
  1 23  1  1  0  0  0
  5 24  1  6  0  0  0
  4 25  1  6  0  0  0
  2 26  1  6  0  0  0
  3 27  1  1  0  0  0
 16 28  1  0  0  0  0
 28 29  2  0  0  0  0
 24 30  1  0  0  0  0
 30 31  2  0  0  0  0
 30 32  1  0  0  0  0
 30 33  1  0  0  0  0
 27 60  1  0  0  0  0
 25 34  1  0  0  0  0
 34 35  1  0  0  0  0
 35 36  1  0  0  0  0
 34 37  2  0  0  0  0
 36 38  2  0  0  0  0
  9 39  1  1  0  0  0
 39 40  1  0  0  0  0
 40 41  1  0  0  0  0
 41 42  1  0  0  0  0
 42 43  1  6  0  0  0
 43 44  1  0  0  0  0
 49 50  1  0  0  0  0
 36 49  1  0  0  0  0
 50 51  1  0  0  0  0
 51 52  1  0  0  0  0
 52 53  1  0  0  0  0
 53 54  1  0  0  0  0
 54 55  1  0  0  0  0
 55 56  1  0  0  0  0
 56 57  1  0  0  0  0
 57 58  1  0  0  0  0
 58 59  1  0  0  0  0
 60 61  1  0  0  0  0
 61 62  1  0  0  0  0
 62 63  1  0  0  0  0
 63 64  1  0  0  0  0
 64 65  1  0  0  0  0
 65 66  1  0  0  0  0
 66 67  1  0  0  0  0
 67 68  1  0  0  0  0
 68 69  1  0  0  0  0
 28 70  1  0  0  0  0
 70 71  1  0  0  0  0
 71 72  1  0  0  0  0
 72 73  1  0  0  0  0
 73 74  1  0  0  0  0
 74 75  1  0  0  0  0
 75 76  1  0  0  0  0
 76 77  1  0  0  0  0
 77 78  1  0  0  0  0
 78 79  1  0  0  0  0
 79 80  2  0  0  0  0
 80 81  1  0  0  0  0
 81 82  1  0  0  0  0
 82 83  1  0  0  0  0
 83 84  1  0  0  0  0
 84 85  1  0  0  0  0
 85 86  1  0  0  0  0
 87 88  1  0  0  0  0
 42 87  1  0  0  0  0
 88 89  1  0  0  0  0
 89 90  1  0  0  0  0
 90 91  1  0  0  0  0
 91 92  1  0  0  0  0
 92 93  1  0  0  0  0
M  END
> <DRUGBANK_ID>
DB04933

> <DRUG_GROUPS>
investigational

> <GENERIC_NAME>
Eritoran

> <CHEMICAL_FORMULA>
C66H122N2Na4O19P2

> <MOLECULAR_WEIGHT>
1401.5835

> <EXACT_MASS>
1400.770781456

> <IUPAC_NAME>
tetrasodium (2R,3R,4R,5S,6R)-4-(decyloxy)-5-hydroxy-6-({[(2R,3R,4R,5S,6R)-4-{[(3R)-3-methoxydecyl]oxy}-6-(methoxymethyl)-3-[(11Z)-octadec-11-enamido]-5-(phosphonatooxy)oxan-2-yl]oxy}methyl)-3-(3-oxotetradecanamido)oxan-2-yl phosphate

> <IUPAC_TRADITIONAL_NAME>
tetrasodium (2R,3R,4R,5S,6R)-4-(decyloxy)-5-hydroxy-6-({[(2R,3R,4R,5S,6R)-4-{[(3R)-3-methoxydecyl]oxy}-6-(methoxymethyl)-3-[(11Z)-octadec-11-enamido]-5-(phosphonatooxy)oxan-2-yl]oxy}methyl)-3-(3-oxotetradecanamido)oxan-2-yl phosphate

> <INCHI_IDENTIFIER>
InChI=1S/C66H126N2O19P2.4Na/c1-7-11-15-19-22-25-26-27-28-29-30-32-34-38-42-46-57(70)67-60-64(82-49-47-54(80-6)45-41-36-18-14-10-4)62(86-88(73,74)75)56(51-79-5)85-65(60)83-52-55-61(72)63(81-48-43-39-35-24-21-17-13-9-3)59(66(84-55)87-89(76,77)78)68-58(71)50-53(69)44-40-37-33-31-23-20-16-12-8-2;;;;/h25-26,54-56,59-66,72H,7-24,27-52H2,1-6H3,(H,67,70)(H,68,71)(H2,73,74,75)(H2,76,77,78);;;;/q;4*+1/p-4/b26-25-;;;;/t54-,55-,56-,59-,60-,61-,62-,63-,64-,65-,66-;;;;/m1..../s1

> <INCHI_KEY>
InChIKey=FEMINZOAAWPBPP-RHMAUSBNSA-J

> <SMILES>
[Na+].[Na+].[Na+].[Na+].CCCCCCCCCCCC(=O)CC(=O)N[C@H]1[C@@H](OP([O-])([O-])=O)O[C@H](CO[C@@H]2O[C@H](COC)[C@@H](OP([O-])([O-])=O)[C@H](OCC[C@@H](CCCCCCC)OC)[C@H]2NC(=O)CCCCCCCCC\C=C/CCCCCC)[C@@H](O)[C@@H]1OCCCCCCCCCC

> <JCHEM_ACCEPTOR_COUNT>
17

> <JCHEM_DONOR_COUNT>
3

> <JCHEM_ACIDIC_PKA>
0.55

> <JCHEM_BASIC_PKA>
-3.6

> <JCHEM_PHYSIOLOGICAL_CHARGE>
-4

> <ALOGPS_LOGP>
7.81

> <JCHEM_LOGP>
15.5

> <ALOGPS_LOGS>
-5.6

> <JCHEM_POLARIZABILITY>
152.46

> <JCHEM_POLAR_SURFACE_AREA>
304.95

> <JCHEM_REFRACTIVITY>
342.08

> <JCHEM_ROTATABLE_BOND_COUNT>
59

> <ALOGPS_SOLUBILITY>
3.18e-03 g/l __ 

$$$$
