
  Mrv0541 02231217522D          

 20 19  0  0  1  0            999 V2000
    6.3789   -2.0329    0.0000 O   0  0  0  0  0  0  0  0  0  0  0  0
    6.3789   -2.8579    0.0000 C   0  0  2  0  0  0  0  0  0  0  0  0
    5.6645   -3.2704    0.0000 C   0  0  0  0  0  0  0  0  0  0  0  0
    4.9500   -2.8579    0.0000 O   0  0  0  0  0  0  0  0  0  0  0  0
    4.2355   -3.2704    0.0000 P   0  0  0  0  0  0  0  0  0  0  0  0
    3.5211   -3.6829    0.0000 O   0  0  0  0  0  0  0  0  0  0  0  0
    4.6480   -3.9849    0.0000 O   0  0  0  0  0  0  0  0  0  0  0  0
    3.8230   -2.5559    0.0000 O   0  0  0  0  0  0  0  0  0  0  0  0
    7.0934   -3.2704    0.0000 C   0  0  1  0  0  0  0  0  0  0  0  0
    7.0934   -4.0954    0.0000 O   0  0  0  0  0  0  0  0  0  0  0  0
    7.8079   -2.8579    0.0000 C   0  0  2  0  0  0  0  0  0  0  0  0
    7.8079   -2.0329    0.0000 O   0  0  0  0  0  0  0  0  0  0  0  0
    8.5224   -3.2704    0.0000 C   0  0  2  0  0  0  0  0  0  0  0  0
    8.5224   -4.0954    0.0000 O   0  0  0  0  0  0  0  0  0  0  0  0
    9.2368   -2.8579    0.0000 C   0  0  0  0  0  0  0  0  0  0  0  0
    9.9513   -3.2704    0.0000 O   0  0  0  0  0  0  0  0  0  0  0  0
   10.6658   -2.8579    0.0000 P   0  0  0  0  0  0  0  0  0  0  0  0
   11.3802   -2.4454    0.0000 O   0  0  0  0  0  0  0  0  0  0  0  0
   11.0783   -3.5724    0.0000 O   0  0  0  0  0  0  0  0  0  0  0  0
   10.2533   -2.1434    0.0000 O   0  0  0  0  0  0  0  0  0  0  0  0
  2  1  1  1  0  0  0
  2  3  1  0  0  0  0
  3  4  1  0  0  0  0
  4  5  1  0  0  0  0
  5  6  1  0  0  0  0
  5  7  1  0  0  0  0
  5  8  2  0  0  0  0
  2  9  1  0  0  0  0
  9 10  1  6  0  0  0
  9 11  1  0  0  0  0
 11 12  1  6  0  0  0
 11 13  1  0  0  0  0
 13 14  1  1  0  0  0
 13 15  1  0  0  0  0
 15 16  1  0  0  0  0
 16 17  1  0  0  0  0
 17 18  1  0  0  0  0
 17 19  1  0  0  0  0
 17 20  2  0  0  0  0
M  END
> <DRUGBANK_ID>
DB04733

> <DRUG_GROUPS>
experimental

> <GENERIC_NAME>
1,6-DI-O-PHOSPHONO-D-MANNITOL

> <CHEMICAL_FORMULA>
C6H16O12P2

> <MOLECULAR_WEIGHT>
342.1316

> <EXACT_MASS>
342.011699

> <IUPAC_NAME>
{[(2R,3R,4R,5R)-2,3,4,5-tetrahydroxy-6-(phosphonooxy)hexyl]oxy}phosphonic acid

> <IUPAC_TRADITIONAL_NAME>
[(2R,3R,4R,5R)-2,3,4,5-tetrahydroxy-6-(phosphonooxy)hexyl]oxyphosphonic acid

> <INCHI_IDENTIFIER>
InChI=1S/C6H16O12P2/c7-3(1-17-19(11,12)13)5(9)6(10)4(8)2-18-20(14,15)16/h3-10H,1-2H2,(H2,11,12,13)(H2,14,15,16)/t3-,4-,5-,6-/m1/s1

> <INCHI_KEY>
InChIKey=WOYYTQHMNDWRCW-KVTDHHQDSA-N

> <SMILES>
O[C@H](COP(O)(O)=O)[C@@H](O)[C@H](O)[C@H](O)COP(O)(O)=O

> <JCHEM_ACCEPTOR_COUNT>
10

> <JCHEM_DONOR_COUNT>
8

> <JCHEM_ACIDIC_PKA>
1.19

> <JCHEM_BASIC_PKA>
-3.5

> <JCHEM_PHYSIOLOGICAL_CHARGE>
-4

> <ALOGPS_LOGP>
-1.7

> <JCHEM_LOGP>
-4

> <ALOGPS_LOGS>
-1.3

> <JCHEM_POLARIZABILITY>
25.59

> <JCHEM_POLAR_SURFACE_AREA>
214.44

> <JCHEM_REFRACTIVITY>
60.15

> <JCHEM_ROTATABLE_BOND_COUNT>
9

> <ALOGPS_SOLUBILITY>
1.62e+01 g/l __ 

$$$$
