
  Mrv0541 02231217372D          

 12 11  0  0  0  0            999 V2000
    2.4750    1.4289    0.0000 O   0  5  0  0  0  0  0  0  0  0  0  0
    2.0625    0.7145    0.0000 C   0  0  0  0  0  0  0  0  0  0  0  0
    2.4750    0.0000    0.0000 O   0  0  0  0  0  0  0  0  0  0  0  0
    1.2375    0.7145    0.0000 C   0  0  0  0  0  0  0  0  0  0  0  0
    0.8250    0.0000    0.0000 C   0  0  0  0  0  0  0  0  0  0  0  0
    0.0000    0.0000    0.0000 C   0  0  0  0  0  0  0  0  0  0  0  0
   -0.4125   -0.7145    0.0000 C   0  0  0  0  0  0  0  0  0  0  0  0
    0.0000   -1.4289    0.0000 O   0  5  0  0  0  0  0  0  0  0  0  0
   -1.2375   -0.7145    0.0000 O   0  0  0  0  0  0  0  0  0  0  0  0
    1.2375   -0.7145    0.0000 C   0  0  0  0  0  0  0  0  0  0  0  0
    0.8250   -1.4289    0.0000 O   0  5  0  0  0  0  0  0  0  0  0  0
    2.0625   -0.7145    0.0000 O   0  0  0  0  0  0  0  0  0  0  0  0
  1  2  1  0  0  0  0
  2  3  2  0  0  0  0
  2  4  1  0  0  0  0
  4  5  1  0  0  0  0
  5  6  2  0  0  0  0
  6  7  1  0  0  0  0
  7  8  1  0  0  0  0
  7  9  2  0  0  0  0
  5 10  1  0  0  0  0
 10 11  1  0  0  0  0
 10 12  2  0  0  0  0
M  END
> <DRUGBANK_ID>
DB04351

> <DRUG_GROUPS>
experimental

> <GENERIC_NAME>
Aconitate Ion

> <CHEMICAL_FORMULA>
C6H3O6

> <MOLECULAR_WEIGHT>
171.0844

> <EXACT_MASS>
170.992962828

> <IUPAC_NAME>
(1Z)-prop-1-ene-1,2,3-tricarboxylate

> <IUPAC_TRADITIONAL_NAME>
aconitate ion

> <INCHI_IDENTIFIER>
InChI=1S/C6H6O6/c7-4(8)1-3(6(11)12)2-5(9)10/h1H,2H2,(H,7,8)(H,9,10)(H,11,12)/p-3/b3-1-

> <INCHI_KEY>
InChIKey=GTZCVFVGUGFEME-IWQZZHSRSA-K

> <SMILES>
[O-]C(=O)C\C(=C\C([O-])=O)C([O-])=O

> <JCHEM_ACCEPTOR_COUNT>
6

> <JCHEM_DONOR_COUNT>
0

> <JCHEM_ACIDIC_PKA>
2.11

> <JCHEM_PHYSIOLOGICAL_CHARGE>
-3

> <ALOGPS_LOGP>
0.11

> <JCHEM_LOGP>
-0.52

> <ALOGPS_LOGS>
-1

> <JCHEM_POLARIZABILITY>
12.91

> <JCHEM_POLAR_SURFACE_AREA>
120.39

> <JCHEM_REFRACTIVITY>
67.74

> <JCHEM_ROTATABLE_BOND_COUNT>
4

> <ALOGPS_SOLUBILITY>
2.11e+01 g/l __ 

$$$$
