
  Mrv0541 02231217302D          

 17 16  0  0  1  0            999 V2000
    9.9513    4.0954    0.0000 N   0  0  0  0  0  0  0  0  0  0  0  0
    9.9513    3.2704    0.0000 C   0  0  1  0  0  0  0  0  0  0  0  0
    9.2368    2.8579    0.0000 C   0  0  0  0  0  0  0  0  0  0  0  0
    8.5224    3.2704    0.0000 C   0  0  0  0  0  0  0  0  0  0  0  0
    7.8079    2.8579    0.0000 S   0  0  0  0  0  0  0  0  0  0  0  0
    7.0934    3.2704    0.0000 C   0  0  0  0  0  0  0  0  0  0  0  0
    6.3789    2.8579    0.0000 C   0  0  2  0  0  0  0  0  0  0  0  0
    6.3789    2.0329    0.0000 O   0  0  0  0  0  0  0  0  0  0  0  0
    5.6645    3.2704    0.0000 C   0  0  2  0  0  0  0  0  0  0  0  0
    5.6645    4.0954    0.0000 O   0  0  0  0  0  0  0  0  0  0  0  0
    4.9500    2.8579    0.0000 C   0  0  0  0  0  0  0  0  0  0  0  0
    4.9500    2.0329    0.0000 O   0  0  0  0  0  0  0  0  0  0  0  0
    4.2355    3.2704    0.0000 C   0  0  0  0  0  0  0  0  0  0  0  0
    3.5211    2.8579    0.0000 O   0  0  0  0  0  0  0  0  0  0  0  0
   10.6658    2.8579    0.0000 C   0  0  0  0  0  0  0  0  0  0  0  0
   11.3802    3.2704    0.0000 O   0  0  0  0  0  0  0  0  0  0  0  0
   10.6658    2.0329    0.0000 O   0  0  0  0  0  0  0  0  0  0  0  0
  2  1  1  6  0  0  0
  2  3  1  0  0  0  0
  3  4  1  0  0  0  0
  4  5  1  0  0  0  0
  5  6  1  0  0  0  0
  6  7  1  0  0  0  0
  7  8  1  6  0  0  0
  7  9  1  0  0  0  0
  9 10  1  1  0  0  0
  9 11  1  0  0  0  0
 11 12  2  0  0  0  0
 11 13  1  0  0  0  0
 13 14  1  0  0  0  0
  2 15  1  0  0  0  0
 15 16  1  0  0  0  0
 15 17  2  0  0  0  0
M  END
> <DRUGBANK_ID>
DB04182

> <DRUG_GROUPS>
experimental

> <GENERIC_NAME>
(S)-2-Amino-4-[(2s,3r)-2,3,5-Trihydroxy-4-Oxo-Pentyl]Mercapto-Butyric Acid

> <CHEMICAL_FORMULA>
C9H17NO6S

> <MOLECULAR_WEIGHT>
267.299

> <EXACT_MASS>
267.077657971

> <IUPAC_NAME>
(2S)-2-amino-4-{[(2R,3S)-2,3,5-trihydroxy-4-oxopentyl]sulfanyl}butanoic acid

> <IUPAC_TRADITIONAL_NAME>
(2S)-2-amino-4-{[(2R,3S)-2,3,5-trihydroxy-4-oxopentyl]sulfanyl}butanoic acid

> <INCHI_IDENTIFIER>
InChI=1S/C9H17NO6S/c10-5(9(15)16)1-2-17-4-7(13)8(14)6(12)3-11/h5,7-8,11,13-14H,1-4,10H2,(H,15,16)/t5-,7-,8+/m0/s1

> <INCHI_KEY>
InChIKey=QFXXRJSDEMCBPH-APQOSEDMSA-N

> <SMILES>
N[C@@H](CCSC[C@H](O)[C@H](O)C(=O)CO)C(O)=O

> <JCHEM_ACCEPTOR_COUNT>
7

> <JCHEM_DONOR_COUNT>
5

> <JCHEM_ACIDIC_PKA>
1.87

> <JCHEM_BASIC_PKA>
9.3

> <JCHEM_PHYSIOLOGICAL_CHARGE>
0

> <ALOGPS_LOGP>
-2.6

> <JCHEM_LOGP>
-4.6

> <ALOGPS_LOGS>
-1.1

> <JCHEM_POLARIZABILITY>
26.56

> <JCHEM_POLAR_SURFACE_AREA>
141.08

> <JCHEM_REFRACTIVITY>
61.13

> <JCHEM_ROTATABLE_BOND_COUNT>
9

> <ALOGPS_SOLUBILITY>
2.13e+01 g/l __ 

$$$$
