
  Mrv0541 02231217362D          

  9  9  0  0  0  0            999 V2000
    0.0000    3.3000    0.0000 N   0  3  0  0  0  0  0  0  0  0  0  0
    0.0000    2.4750    0.0000 C   0  0  0  0  0  0  0  0  0  0  0  0
    0.7145    2.0625    0.0000 C   0  0  0  0  0  0  0  0  0  0  0  0
    0.7145    1.2375    0.0000 C   0  0  0  0  0  0  0  0  0  0  0  0
    1.4289    0.8250    0.0000 C   0  0  0  0  0  0  0  0  0  0  0  0
    1.4289    0.0000    0.0000 C   0  0  0  0  0  0  0  0  0  0  0  0
    0.7145   -0.4125    0.0000 C   0  0  0  0  0  0  0  0  0  0  0  0
    0.0000    0.0000    0.0000 C   0  0  0  0  0  0  0  0  0  0  0  0
    0.0000    0.8250    0.0000 C   0  0  0  0  0  0  0  0  0  0  0  0
  1  2  1  0  0  0  0
  2  3  1  0  0  0  0
  3  4  1  0  0  0  0
  4  5  2  0  0  0  0
  5  6  1  0  0  0  0
  6  7  2  0  0  0  0
  7  8  1  0  0  0  0
  8  9  2  0  0  0  0
  4  9  1  0  0  0  0
M  END
> <DRUGBANK_ID>
DB04325

> <DRUG_GROUPS>
experimental

> <GENERIC_NAME>
2-Phenylethylamine

> <CHEMICAL_FORMULA>
C8H12N

> <MOLECULAR_WEIGHT>
122.1876

> <EXACT_MASS>
122.096974389

> <IUPAC_NAME>
2-phenylethan-1-aminium

> <IUPAC_TRADITIONAL_NAME>
2-phenylethylamine

> <INCHI_IDENTIFIER>
InChI=1S/C8H11N/c9-7-6-8-4-2-1-3-5-8/h1-5H,6-7,9H2/p+1

> <INCHI_KEY>
InChIKey=BHHGXPLMPWCGHP-UHFFFAOYSA-O

> <SMILES>
[NH3+]CCC1=CC=CC=C1

> <JCHEM_ACCEPTOR_COUNT>
0

> <JCHEM_DONOR_COUNT>
1

> <JCHEM_BASIC_PKA>
9.79

> <JCHEM_PHYSIOLOGICAL_CHARGE>
1

> <ALOGPS_LOGP>
-1.4

> <JCHEM_LOGP>
1.39

> <ALOGPS_LOGS>
-3.3

> <JCHEM_POLARIZABILITY>
14.69

> <JCHEM_POLAR_SURFACE_AREA>
27.64

> <JCHEM_REFRACTIVITY>
50.58

> <JCHEM_ROTATABLE_BOND_COUNT>
2

> <ALOGPS_SOLUBILITY>
7.80e-02 g/l __ 

$$$$
