
  Mrv0541 02231217472D          

 10  9  0  0  0  0            999 V2000
    3.9039    0.6039    0.0000 O   0  0  0  0  0  0  0  0  0  0  0  0
    3.9039    1.4289    0.0000 C   0  0  0  0  0  0  0  0  0  0  0  0
    3.1895    1.8414    0.0000 C   0  0  0  0  0  0  0  0  0  0  0  0
    2.4750    1.4289    0.0000 C   0  0  0  0  0  0  0  0  0  0  0  0
    1.7605    1.8414    0.0000 O   0  0  0  0  0  0  0  0  0  0  0  0
    2.4750    0.6039    0.0000 O   0  0  0  0  0  0  0  0  0  0  0  0
    4.6184    1.8414    0.0000 C   0  0  0  0  0  0  0  0  0  0  0  0
    5.3329    1.4289    0.0000 C   0  0  0  0  0  0  0  0  0  0  0  0
    6.0474    1.8414    0.0000 O   0  0  0  0  0  0  0  0  0  0  0  0
    5.3329    0.6039    0.0000 O   0  0  0  0  0  0  0  0  0  0  0  0
  1  2  1  0  0  0  0
  2  3  1  0  0  0  0
  3  4  1  0  0  0  0
  4  5  1  0  0  0  0
  4  6  2  0  0  0  0
  2  7  1  0  0  0  0
  7  8  1  0  0  0  0
  8  9  1  0  0  0  0
  8 10  2  0  0  0  0
M  END
> <DRUGBANK_ID>
DB04594

> <DRUG_GROUPS>
experimental

> <GENERIC_NAME>
3-hydroxyglutaric acid

> <CHEMICAL_FORMULA>
C5H8O5

> <MOLECULAR_WEIGHT>
148.114

> <EXACT_MASS>
148.037173366

> <IUPAC_NAME>
3-hydroxypentanedioic acid

> <IUPAC_TRADITIONAL_NAME>
3-hydroxyglutaric acid

> <INCHI_IDENTIFIER>
InChI=1S/C5H8O5/c6-3(1-4(7)8)2-5(9)10/h3,6H,1-2H2,(H,7,8)(H,9,10)

> <INCHI_KEY>
InChIKey=ZQHYXNSQOIDNTL-UHFFFAOYSA-N

> <SMILES>
OC(CC(O)=O)CC(O)=O

> <JCHEM_ACCEPTOR_COUNT>
5

> <JCHEM_DONOR_COUNT>
3

> <JCHEM_ACIDIC_PKA>
3.52

> <JCHEM_BASIC_PKA>
-2.9

> <JCHEM_PHYSIOLOGICAL_CHARGE>
-2

> <ALOGPS_LOGP>
-1.2

> <JCHEM_LOGP>
-1

> <ALOGPS_LOGS>
0.06

> <JCHEM_POLARIZABILITY>
12.81

> <JCHEM_POLAR_SURFACE_AREA>
94.83

> <JCHEM_REFRACTIVITY>
29.5

> <JCHEM_ROTATABLE_BOND_COUNT>
4

> <ALOGPS_SOLUBILITY>
1.72e+02 g/l __ 

$$$$
