
  Mrv0541 02231217492D          

 15 16  0  0  0  0            999 V2000
    0.0000   -2.4750    0.0000 O   0  0  0  0  0  0  0  0  0  0  0  0
    0.0000   -1.6500    0.0000 C   0  0  0  0  0  0  0  0  0  0  0  0
   -0.7145   -1.2375    0.0000 O   0  0  0  0  0  0  0  0  0  0  0  0
    0.7145   -1.2375    0.0000 C   0  0  0  0  0  0  0  0  0  0  0  0
    0.7145   -0.4125    0.0000 C   0  0  0  0  0  0  0  0  0  0  0  0
    0.0000    0.0000    0.0000 O   0  0  0  0  0  0  0  0  0  0  0  0
    1.4289    0.0000    0.0000 C   0  0  0  0  0  0  0  0  0  0  0  0
    2.1434   -0.4125    0.0000 C   0  0  0  0  0  0  0  0  0  0  0  0
    2.8579    0.0000    0.0000 C   0  0  0  0  0  0  0  0  0  0  0  0
    3.5724   -0.4125    0.0000 C   0  0  0  0  0  0  0  0  0  0  0  0
    3.5724   -1.2375    0.0000 C   0  0  0  0  0  0  0  0  0  0  0  0
    4.2868   -1.6500    0.0000 O   0  0  0  0  0  0  0  0  0  0  0  0
    2.8579   -1.6500    0.0000 C   0  0  0  0  0  0  0  0  0  0  0  0
    2.1434   -1.2375    0.0000 C   0  0  0  0  0  0  0  0  0  0  0  0
    1.4289   -1.6500    0.0000 C   0  0  0  0  0  0  0  0  0  0  0  0
  1  2  1  0  0  0  0
  2  3  2  0  0  0  0
  2  4  1  0  0  0  0
  4  5  2  0  0  0  0
  5  6  1  0  0  0  0
  5  7  1  0  0  0  0
  7  8  2  0  0  0  0
  8  9  1  0  0  0  0
  9 10  2  0  0  0  0
 10 11  1  0  0  0  0
 11 12  1  0  0  0  0
 11 13  2  0  0  0  0
 13 14  1  0  0  0  0
  8 14  1  0  0  0  0
 14 15  2  0  0  0  0
  4 15  1  0  0  0  0
M  END
> <DRUGBANK_ID>
DB04641

> <DRUG_GROUPS>
experimental

> <GENERIC_NAME>
3,7-DIHYDROXYNAPHTHALENE-2-CARBOXYLIC ACID

> <CHEMICAL_FORMULA>
C11H8O4

> <MOLECULAR_WEIGHT>
204.1788

> <EXACT_MASS>
204.042258744

> <IUPAC_NAME>
3,7-dihydroxynaphthalene-2-carboxylic acid

> <IUPAC_TRADITIONAL_NAME>
3,7-dihydroxynaphthalene-2-carboxylic acid

> <INCHI_IDENTIFIER>
InChI=1S/C11H8O4/c12-8-2-1-6-5-10(13)9(11(14)15)4-7(6)3-8/h1-5,12-13H,(H,14,15)

> <INCHI_KEY>
InChIKey=QMWOUSYSNFCKAZ-UHFFFAOYSA-N

> <SMILES>
OC(=O)C1=C(O)C=C2C=CC(O)=CC2=C1

> <JCHEM_ACCEPTOR_COUNT>
4

> <JCHEM_DONOR_COUNT>
3

> <JCHEM_ACIDIC_PKA>
2.69

> <JCHEM_BASIC_PKA>
-5.5

> <JCHEM_PHYSIOLOGICAL_CHARGE>
-1

> <ALOGPS_LOGP>
2.38

> <JCHEM_LOGP>
2.66

> <ALOGPS_LOGS>
-2.6

> <JCHEM_POLARIZABILITY>
19.77

> <JCHEM_POLAR_SURFACE_AREA>
77.76

> <JCHEM_REFRACTIVITY>
53.73

> <JCHEM_ROTATABLE_BOND_COUNT>
1

> <ALOGPS_SOLUBILITY>
4.90e-01 g/l __ 

$$$$
