
  Mrv0541 02231217512D          

  6  6  0  0  0  0            999 V2000
    0.5678    1.9393    0.0000 O   0  0  0  0  0  0  0  0  0  0  0  0
    0.5678    1.1143    0.0000 C   0  0  0  0  0  0  0  0  0  0  0  0
    1.2352    0.6294    0.0000 C   0  0  0  0  0  0  0  0  0  0  0  0
    0.9803   -0.1553    0.0000 C   0  0  0  0  0  0  0  0  0  0  0  0
    0.1553   -0.1553    0.0000 C   0  0  0  0  0  0  0  0  0  0  0  0
   -0.0997    0.6294    0.0000 O   0  0  0  0  0  0  0  0  0  0  0  0
  1  2  2  0  0  0  0
  2  3  1  0  0  0  0
  3  4  1  0  0  0  0
  4  5  1  0  0  0  0
  5  6  1  0  0  0  0
  2  6  1  0  0  0  0
M  END
> <DRUGBANK_ID>
DB04699

> <DRUG_GROUPS>
experimental

> <GENERIC_NAME>
4-Butyrolactone

> <SYNONYMS>


> <CHEMICAL_FORMULA>
C4H6O2

> <MOLECULAR_WEIGHT>
86.0892

> <EXACT_MASS>
86.036779436

> <IUPAC_NAME>
oxolan-2-one

> <IUPAC_TRADITIONAL_NAME>
4-butyrolactone

> <INCHI_IDENTIFIER>
InChI=1S/C4H6O2/c5-4-2-1-3-6-4/h1-3H2

> <INCHI_KEY>
InChIKey=YEJRWHAVMIAJKC-UHFFFAOYSA-N

> <SMILES>
O=C1CCCO1

> <JCHEM_ACCEPTOR_COUNT>
1

> <JCHEM_DONOR_COUNT>
0

> <JCHEM_BASIC_PKA>
-7

> <JCHEM_PHYSIOLOGICAL_CHARGE>
0

> <ALOGPS_LOGP>
-0.11

> <JCHEM_LOGP>
0.15

> <ALOGPS_LOGS>
0.44

> <JCHEM_POLARIZABILITY>
8.23

> <JCHEM_POLAR_SURFACE_AREA>
26.3

> <JCHEM_REFRACTIVITY>
20.31

> <JCHEM_ROTATABLE_BOND_COUNT>
0

> <ALOGPS_SOLUBILITY>
2.38e+02 g/l __ 

$$$$
