
  Mrv0541 02231218002D          

 44 50  0  0  1  0            999 V2000
    4.1571   -0.0085    0.0000 O   0  0  0  0  0  0  0  0  0  0  0  0
    4.1188   -2.1910    0.0000 O   0  0  0  0  0  0  0  0  0  0  0  0
    2.5042   -1.8507    0.0000 O   0  0  0  0  0  0  0  0  0  0  0  0
    1.9917   -0.2823    0.0000 O   0  0  0  0  0  0  0  0  0  0  0  0
    2.2863    1.1159    0.0000 O   0  0  0  0  0  0  0  0  0  0  0  0
    8.2946   -1.4481    0.0000 O   0  0  0  0  0  0  0  0  0  0  0  0
    8.2946    1.4481    0.0000 O   0  0  0  0  0  0  0  0  0  0  0  0
    5.3519   -3.9339    0.0000 O   0  0  0  0  0  0  0  0  0  0  0  0
    5.3519    3.9339    0.0000 O   0  0  0  0  0  0  0  0  0  0  0  0
   10.9949    1.4290    0.0000 O   0  0  0  0  0  0  0  0  0  0  0  0
    9.7574    2.1435    0.0000 O   0  0  0  0  0  0  0  0  0  0  0  0
    5.2207   -0.9629    0.0000 N   0  0  0  0  0  0  0  0  0  0  0  0
    5.2207    0.9629    0.0000 N   0  0  0  0  0  0  0  0  0  0  0  0
    8.5199    0.0000    0.0000 N   0  0  0  0  0  0  0  0  0  0  0  0
    9.3449    0.0000    0.0000 N   0  0  0  0  0  0  0  0  0  0  0  0
    4.4135   -0.7928    0.0000 C   0  0  0  0  0  0  0  0  0  0  0  0
    3.8624   -1.4068    0.0000 C   0  0  1  0  0  0  0  0  0  0  0  0
    5.8288   -0.4125    0.0000 C   0  0  0  0  0  0  0  0  0  0  0  0
    3.0552   -1.2366    0.0000 C   0  0  2  0  0  0  0  0  0  0  0  0
    2.7989   -0.4524    0.0000 C   0  0  1  0  0  0  0  0  0  0  0  0
    3.3499    0.1616    0.0000 C   0  0  1  0  0  0  0  0  0  0  0  0
    6.5432   -0.8250    0.0000 C   0  0  0  0  0  0  0  0  0  0  0  0
    5.5549   -1.7118    0.0000 C   0  0  0  0  0  0  0  0  0  0  0  0
    5.8288    0.4125    0.0000 C   0  0  0  0  0  0  0  0  0  0  0  0
    6.3706   -1.6268    0.0000 C   0  0  0  0  0  0  0  0  0  0  0  0
    7.2578   -0.4125    0.0000 C   0  0  0  0  0  0  0  0  0  0  0  0
    6.5432    0.8250    0.0000 C   0  0  0  0  0  0  0  0  0  0  0  0
    7.2578    0.4125    0.0000 C   0  0  0  0  0  0  0  0  0  0  0  0
    6.3706    1.6268    0.0000 C   0  0  0  0  0  0  0  0  0  0  0  0
    3.0936    0.9458    0.0000 C   0  0  0  0  0  0  0  0  0  0  0  0
    5.5549    1.7118    0.0000 C   0  0  0  0  0  0  0  0  0  0  0  0
    8.0384   -0.6639    0.0000 C   0  0  0  0  0  0  0  0  0  0  0  0
    5.1948   -2.4864    0.0000 C   0  0  0  0  0  0  0  0  0  0  0  0
    8.0384    0.6639    0.0000 C   0  0  0  0  0  0  0  0  0  0  0  0
    6.8828   -2.3105    0.0000 C   0  0  0  0  0  0  0  0  0  0  0  0
    5.6910   -3.1818    0.0000 C   0  0  0  0  0  0  0  0  0  0  0  0
    6.5407   -3.0933    0.0000 C   0  0  0  0  0  0  0  0  0  0  0  0
    6.8828    2.3105    0.0000 C   0  0  0  0  0  0  0  0  0  0  0  0
    5.1948    2.4864    0.0000 C   0  0  0  0  0  0  0  0  0  0  0  0
    9.7574    0.7145    0.0000 C   0  0  0  0  0  0  0  0  0  0  0  0
    6.5407    3.0933    0.0000 C   0  0  0  0  0  0  0  0  0  0  0  0
    5.6910    3.1818    0.0000 C   0  0  0  0  0  0  0  0  0  0  0  0
   10.5824    0.7145    0.0000 C   0  0  0  0  0  0  0  0  0  0  0  0
    9.3449    1.4290    0.0000 C   0  0  0  0  0  0  0  0  0  0  0  0
  1 16  1  0  0  0  0
  1 21  1  0  0  0  0
 17  2  1  6  0  0  0
 19  3  1  1  0  0  0
 20  4  1  6  0  0  0
  5 30  1  0  0  0  0
  6 32  2  0  0  0  0
  7 34  2  0  0  0  0
  8 36  1  0  0  0  0
  9 42  1  0  0  0  0
 10 43  1  0  0  0  0
 11 44  1  0  0  0  0
 12 16  1  0  0  0  0
 12 18  1  0  0  0  0
 12 23  1  0  0  0  0
 13 24  1  0  0  0  0
 13 31  1  0  0  0  0
 14 15  1  0  0  0  0
 14 32  1  0  0  0  0
 14 34  1  0  0  0  0
 15 40  1  0  0  0  0
 16 17  1  0  0  0  0
 17 19  1  0  0  0  0
 18 22  1  0  0  0  0
 18 24  2  0  0  0  0
 19 20  1  0  0  0  0
 20 21  1  0  0  0  0
 21 30  1  1  0  0  0
 22 25  1  0  0  0  0
 22 26  2  0  0  0  0
 23 25  2  0  0  0  0
 23 33  1  0  0  0  0
 24 27  1  0  0  0  0
 25 35  1  0  0  0  0
 26 28  1  0  0  0  0
 26 32  1  0  0  0  0
 27 28  2  0  0  0  0
 27 29  1  0  0  0  0
 28 34  1  0  0  0  0
 29 31  2  0  0  0  0
 29 38  1  0  0  0  0
 31 39  1  0  0  0  0
 33 36  2  0  0  0  0
 35 37  2  0  0  0  0
 36 37  1  0  0  0  0
 38 41  2  0  0  0  0
 39 42  2  0  0  0  0
 40 43  1  0  0  0  0
 40 44  1  0  0  0  0
 41 42  1  0  0  0  0
M  END
> <DRUGBANK_ID>
DB04882

> <DRUG_GROUPS>
investigational

> <GENERIC_NAME>
Edotecarin

> <SYNONYMS>
Edotecarinum

> <CHEMICAL_FORMULA>
C29H28N4O11

> <MOLECULAR_WEIGHT>
608.5528

> <EXACT_MASS>
608.175457758

> <IUPAC_NAME>
13-[(1,3-dihydroxypropan-2-yl)amino]-6,20-dihydroxy-3-[(3R,4S,5S,6R)-3,4,5-trihydroxy-6-(hydroxymethyl)oxan-2-yl]-3,13,23-triazahexacyclo[14.7.0.0^{2,10}.0^{4,9}.0^{11,15}.0^{17,22}]tricosa-1(16),2(10),4,6,8,11(15),17,19,21-nonaene-12,14-dione

> <IUPAC_TRADITIONAL_NAME>
13-[(1,3-dihydroxypropan-2-yl)amino]-6,20-dihydroxy-3-[(3R,4S,5S,6R)-3,4,5-trihydroxy-6-(hydroxymethyl)oxan-2-yl]-3,13,23-triazahexacyclo[14.7.0.0^{2,10}.0^{4,9}.0^{11,15}.0^{17,22}]tricosa-1(16),2(10),4,6,8,11(15),17,19,21-nonaene-12,14-dione

> <INCHI_IDENTIFIER>
InChI=1S/C29H28N4O11/c34-7-10(8-35)31-33-27(42)20-18-13-3-1-11(37)5-15(13)30-22(18)23-19(21(20)28(33)43)14-4-2-12(38)6-16(14)32(23)29-26(41)25(40)24(39)17(9-36)44-29/h1-6,10,17,24-26,29-31,34-41H,7-9H2/t17-,24-,25+,26-,29?/m1/s1

> <INCHI_KEY>
InChIKey=QMVPQBFHUJZJCS-AKGYMOPHSA-N

> <SMILES>
OCC(CO)NN1C(=O)C2=C3C(NC4=C3C=CC(O)=C4)=C3N(C4O[C@H](CO)[C@@H](O)[C@H](O)[C@H]4O)C4=C(C=CC(O)=C4)C3=C2C1=O

> <JCHEM_ACCEPTOR_COUNT>
12

> <JCHEM_DONOR_COUNT>
10

> <JCHEM_ACIDIC_PKA>
8.82

> <JCHEM_BASIC_PKA>
2.44

> <JCHEM_PHYSIOLOGICAL_CHARGE>
0

> <ALOGPS_LOGP>
-0.11

> <JCHEM_LOGP>
-1.3

> <ALOGPS_LOGS>
-2.6

> <JCHEM_POLARIZABILITY>
61.17

> <JCHEM_POLAR_SURFACE_AREA>
241.2

> <JCHEM_REFRACTIVITY>
161.73

> <JCHEM_ROTATABLE_BOND_COUNT>
6

> <ALOGPS_SOLUBILITY>
1.58e+00 g/l __ 

$$$$
