
  Mrv0541 02231217452D          

 12 12  0  0  1  0            999 V2000
    2.1434    1.2375    0.0000 O   0  0  0  0  0  0  0  0  0  0  0  0
    1.4289    0.8250    0.0000 C   0  0  1  0  0  0  0  0  0  0  0  0
    1.4289    0.0000    0.0000 C   0  0  0  0  0  0  0  0  0  0  0  0
    0.7145   -0.4125    0.0000 C   0  0  2  0  0  0  0  0  0  0  0  0
    0.0000    0.0000    0.0000 O   0  0  0  0  0  0  0  0  0  0  0  0
    0.0000    0.8250    0.0000 C   0  0  1  0  0  0  0  0  0  0  0  0
   -0.7145    1.2375    0.0000 O   0  0  0  0  0  0  0  0  0  0  0  0
    0.7145    1.2375    0.0000 C   0  0  2  0  0  0  0  0  0  0  0  0
    0.7145    2.0625    0.0000 O   0  0  0  0  0  0  0  0  0  0  0  0
    0.7145   -1.2375    0.0000 C   0  0  0  0  0  0  0  0  0  0  0  0
    1.4289   -1.6500    0.0000 O   0  0  0  0  0  0  0  0  0  0  0  0
    0.0000   -1.6500    0.0000 O   0  0  0  0  0  0  0  0  0  0  0  0
  2  1  1  1  0  0  0
  2  3  1  0  0  0  0
  3  4  1  0  0  0  0
  4  5  1  0  0  0  0
  5  6  1  0  0  0  0
  6  7  1  1  0  0  0
  6  8  1  0  0  0  0
  2  8  1  0  0  0  0
  8  9  1  6  0  0  0
  4 10  1  1  0  0  0
 10 11  1  0  0  0  0
 10 12  2  0  0  0  0
M  END
> <DRUGBANK_ID>
DB04548

> <DRUG_GROUPS>
experimental

> <GENERIC_NAME>
4-Deoxy-D-Glucuronic Acid

> <CHEMICAL_FORMULA>
C6H10O6

> <MOLECULAR_WEIGHT>
178.14

> <EXACT_MASS>
178.047738052

> <IUPAC_NAME>
(2S,4S,5R,6R)-4,5,6-trihydroxyoxane-2-carboxylic acid

> <IUPAC_TRADITIONAL_NAME>
4-deoxy-D-glucuronic acid

> <INCHI_IDENTIFIER>
InChI=1S/C6H10O6/c7-2-1-3(5(9)10)12-6(11)4(2)8/h2-4,6-8,11H,1H2,(H,9,10)/t2-,3-,4+,6+/m0/s1

> <INCHI_KEY>
InChIKey=OGDYCNQXUUBOMI-RFPGKLGKSA-N

> <SMILES>
O[C@H]1C[C@H](O[C@@H](O)[C@@H]1O)C(O)=O

> <JCHEM_ACCEPTOR_COUNT>
6

> <JCHEM_DONOR_COUNT>
4

> <JCHEM_ACIDIC_PKA>
3.37

> <JCHEM_BASIC_PKA>
-3.3

> <JCHEM_PHYSIOLOGICAL_CHARGE>
-1

> <ALOGPS_LOGP>
-2.2

> <JCHEM_LOGP>
-1.9

> <ALOGPS_LOGS>
0.42

> <JCHEM_POLARIZABILITY>
15.63

> <JCHEM_POLAR_SURFACE_AREA>
107.22

> <JCHEM_REFRACTIVITY>
34.69

> <JCHEM_ROTATABLE_BOND_COUNT>
1

> <ALOGPS_SOLUBILITY>
4.72e+02 g/l __ 

$$$$
