
  Mrv0541 02231217322D          

 33 32  0  0  0  0            999 V2000
   14.1868    4.8908    0.0000 O   0  0  0  0  0  0  0  0  0  0  0  0
   14.9013    4.4783    0.0000 C   0  0  0  0  0  0  0  0  0  0  0  0
   14.9013    3.6533    0.0000 O   0  0  0  0  0  0  0  0  0  0  0  0
   15.6158    4.8908    0.0000 C   0  0  0  0  0  0  0  0  0  0  0  0
   15.6158    5.7158    0.0000 N   0  0  0  0  0  0  0  0  0  0  0  0
   14.9013    6.1283    0.0000 C   0  0  0  0  0  0  0  0  0  0  0  0
   14.1868    5.7158    0.0000 C   0  0  0  0  0  0  0  0  0  0  0  0
   13.4724    6.1283    0.0000 N   0  0  0  0  0  0  0  0  0  0  0  0
   13.4724    6.9533    0.0000 C   0  0  0  0  0  0  0  0  0  0  0  0
   14.1868    7.3658    0.0000 C   0  0  0  0  0  0  0  0  0  0  0  0
   14.1868    8.1908    0.0000 O   0  0  0  0  0  0  0  0  0  0  0  0
   14.9013    6.9533    0.0000 O   0  0  0  0  0  0  0  0  0  0  0  0
   12.7579    5.7158    0.0000 C   0  0  0  0  0  0  0  0  0  0  0  0
   12.0434    6.1283    0.0000 C   0  0  0  0  0  0  0  0  0  0  0  0
   12.0434    6.9533    0.0000 O   0  0  0  0  0  0  0  0  0  0  0  0
   11.3289    5.7158    0.0000 N   0  0  0  0  0  0  0  0  0  0  0  0
   10.6145    6.1283    0.0000 C   0  0  0  0  0  0  0  0  0  0  0  0
    9.9000    5.7158    0.0000 C   0  0  0  0  0  0  0  0  0  0  0  0
    9.1855    6.1283    0.0000 S   0  0  0  0  0  0  0  0  0  0  0  0
   16.3302    6.1283    0.0000 C   0  0  0  0  0  0  0  0  0  0  0  0
   17.0447    5.7158    0.0000 C   0  0  0  0  0  0  0  0  0  0  0  0
   17.7592    6.1283    0.0000 N   0  0  0  0  0  0  0  0  0  0  0  0
   17.7592    6.9533    0.0000 C   0  0  0  0  0  0  0  0  0  0  0  0
   17.0447    7.3658    0.0000 C   0  0  0  0  0  0  0  0  0  0  0  0
   16.3302    6.9533    0.0000 O   0  0  0  0  0  0  0  0  0  0  0  0
   17.0447    8.1908    0.0000 O   0  0  0  0  0  0  0  0  0  0  0  0
   18.4737    5.7158    0.0000 C   0  0  0  0  0  0  0  0  0  0  0  0
   19.1881    6.1283    0.0000 C   0  0  0  0  0  0  0  0  0  0  0  0
   19.1881    6.9533    0.0000 O   0  0  0  0  0  0  0  0  0  0  0  0
   19.9026    5.7158    0.0000 N   0  0  0  0  0  0  0  0  0  0  0  0
   20.6171    6.1283    0.0000 C   0  0  0  0  0  0  0  0  0  0  0  0
   21.3315    5.7158    0.0000 C   0  0  0  0  0  0  0  0  0  0  0  0
   22.0460    6.1283    0.0000 S   0  0  0  0  0  0  0  0  0  0  0  0
  1  2  1  0  0  0  0
  2  3  2  0  0  0  0
  2  4  1  0  0  0  0
  4  5  1  0  0  0  0
  5  6  1  0  0  0  0
  6  7  1  0  0  0  0
  7  8  1  0  0  0  0
  8  9  1  0  0  0  0
  9 10  1  0  0  0  0
 10 11  1  0  0  0  0
 10 12  2  0  0  0  0
  8 13  1  0  0  0  0
 13 14  1  0  0  0  0
 14 15  2  0  0  0  0
 14 16  1  0  0  0  0
 16 17  1  0  0  0  0
 17 18  1  0  0  0  0
 18 19  1  0  0  0  0
  5 20  1  0  0  0  0
 20 21  1  0  0  0  0
 21 22  1  0  0  0  0
 22 23  1  0  0  0  0
 23 24  1  0  0  0  0
 24 25  1  0  0  0  0
 24 26  2  0  0  0  0
 22 27  1  0  0  0  0
 27 28  1  0  0  0  0
 28 29  2  0  0  0  0
 28 30  1  0  0  0  0
 30 31  1  0  0  0  0
 31 32  1  0  0  0  0
 32 33  1  0  0  0  0
M  END
> <DRUGBANK_ID>
DB04229

> <DRUG_GROUPS>
experimental

> <GENERIC_NAME>
7,10,13-Tri(Carboxymethyl)-5,15-Dioxo-4,7,10,13,16-Pentaaza-1,19-Dithianonadecane

> <CHEMICAL_FORMULA>
C18H33N5O8S2

> <MOLECULAR_WEIGHT>
511.613

> <EXACT_MASS>
511.177054437

> <IUPAC_NAME>
2-[bis({2-[(carboxymethyl)({[(2-sulfanylethyl)carbamoyl]methyl})amino]ethyl})amino]acetic acid

> <IUPAC_TRADITIONAL_NAME>
[bis({2-[(carboxymethyl)({[(2-sulfanylethyl)carbamoyl]methyl})amino]ethyl})amino]acetic acid

> <INCHI_IDENTIFIER>
InChI=1S/C18H33N5O8S2/c24-14(19-1-7-32)9-22(12-17(28)29)5-3-21(11-16(26)27)4-6-23(13-18(30)31)10-15(25)20-2-8-33/h32-33H,1-13H2,(H,19,24)(H,20,25)(H,26,27)(H,28,29)(H,30,31)

> <INCHI_KEY>
InChIKey=MRDWXQKAAKNXSP-UHFFFAOYSA-N

> <SMILES>
OC(=O)CN(CCN(CC(O)=O)CC(=O)NCCS)CCN(CC(O)=O)CC(=O)NCCS

> <JCHEM_ACCEPTOR_COUNT>
11

> <JCHEM_DONOR_COUNT>
7

> <JCHEM_ACIDIC_PKA>
2.42

> <JCHEM_BASIC_PKA>
8.9

> <JCHEM_PHYSIOLOGICAL_CHARGE>
-2

> <ALOGPS_LOGP>
-1.3

> <JCHEM_LOGP>
-6

> <ALOGPS_LOGS>
-3.1

> <JCHEM_POLARIZABILITY>
51.79

> <JCHEM_POLAR_SURFACE_AREA>
179.82

> <JCHEM_REFRACTIVITY>
124.84

> <JCHEM_ROTATABLE_BOND_COUNT>
20

> <ALOGPS_SOLUBILITY>
3.91e-01 g/l __ 

$$$$
