
  Mrv0541 02231217432D          

 14 13  0  0  1  0            999 V2000
    2.9980   -2.5559    0.0000 O   0  0  0  0  0  0  0  0  0  0  0  0
    3.7125   -2.1434    0.0000 N   0  0  0  0  0  0  0  0  0  0  0  0
    4.4270   -2.5559    0.0000 C   0  0  0  0  0  0  0  0  0  0  0  0
    4.4270   -3.3809    0.0000 O   0  0  0  0  0  0  0  0  0  0  0  0
    5.1414   -2.1434    0.0000 C   0  0  1  0  0  0  0  0  0  0  0  0
    5.1414   -1.3184    0.0000 O   0  0  0  0  0  0  0  0  0  0  0  0
    5.8559   -2.5559    0.0000 C   0  0  1  0  0  0  0  0  0  0  0  0
    5.8559   -3.3809    0.0000 O   0  0  0  0  0  0  0  0  0  0  0  0
    6.5704   -2.1434    0.0000 C   0  0  0  0  0  0  0  0  0  0  0  0
    7.2849   -2.5559    0.0000 O   0  0  0  0  0  0  0  0  0  0  0  0
    7.9993   -2.1434    0.0000 P   0  0  0  0  0  0  0  0  0  0  0  0
    8.7138   -1.7309    0.0000 O   0  0  0  0  0  0  0  0  0  0  0  0
    8.4118   -2.8579    0.0000 O   0  0  0  0  0  0  0  0  0  0  0  0
    7.5868   -1.4289    0.0000 O   0  0  0  0  0  0  0  0  0  0  0  0
  1  2  1  0  0  0  0
  2  3  1  0  0  0  0
  3  4  2  0  0  0  0
  3  5  1  0  0  0  0
  5  6  1  1  0  0  0
  5  7  1  0  0  0  0
  7  8  1  6  0  0  0
  7  9  1  0  0  0  0
  9 10  1  0  0  0  0
 10 11  1  0  0  0  0
 11 12  1  0  0  0  0
 11 13  1  0  0  0  0
 11 14  2  0  0  0  0
M  END
> <DRUGBANK_ID>
DB04496

> <DRUG_GROUPS>
experimental

> <GENERIC_NAME>
4-Phospho-D-Erythronohydroxamic Acid

> <CHEMICAL_FORMULA>
C4H10NO8P

> <MOLECULAR_WEIGHT>
231.0979

> <EXACT_MASS>
231.014402813

> <IUPAC_NAME>
[(2S,3S)-2,3-dihydroxy-3-(hydroxycarbamoyl)propoxy]phosphonic acid

> <IUPAC_TRADITIONAL_NAME>
(2S,3S)-2,3-dihydroxy-3-(hydroxycarbamoyl)propoxyphosphonic acid

> <INCHI_IDENTIFIER>
InChI=1S/C4H10NO8P/c6-2(1-13-14(10,11)12)3(7)4(8)5-9/h2-3,6-7,9H,1H2,(H,5,8)(H2,10,11,12)/t2-,3-/m0/s1

> <INCHI_KEY>
InChIKey=JJQQOJRGUHNREK-HRFVKAFMSA-N

> <SMILES>
ONC(=O)[C@@H](O)[C@@H](O)COP(O)(O)=O

> <JCHEM_ACCEPTOR_COUNT>
7

> <JCHEM_DONOR_COUNT>
6

> <JCHEM_ACIDIC_PKA>
1.47

> <JCHEM_BASIC_PKA>
-3.6

> <JCHEM_PHYSIOLOGICAL_CHARGE>
-2

> <ALOGPS_LOGP>
-1.9

> <JCHEM_LOGP>
-3.1

> <ALOGPS_LOGS>
-1.3

> <JCHEM_POLARIZABILITY>
17.66

> <JCHEM_POLAR_SURFACE_AREA>
156.55

> <JCHEM_REFRACTIVITY>
40.81

> <JCHEM_ROTATABLE_BOND_COUNT>
5

> <ALOGPS_SOLUBILITY>
1.14e+01 g/l __ 

$$$$
