PH3
  Mrv0541 02231217462D          

 12 12  0  0  0  0            999 V2000
   -2.0632   -1.6753    0.0000 Cl   0  0  0  0  0  0  0  0  0  0  0  0
    0.0802   -0.4378    0.0000 C    0  0  0  0  0  0  0  0  0  0  0  0
    0.0802   -1.2628    0.0000 C    0  0  0  0  0  0  0  0  0  0  0  0
   -0.6342   -1.6753    0.0000 C    0  0  0  0  0  0  0  0  0  0  0  0
   -1.3487   -1.2628    0.0000 C    0  0  0  0  0  0  0  0  0  0  0  0
   -1.3487   -0.4378    0.0000 C    0  0  0  0  0  0  0  0  0  0  0  0
   -0.6342   -0.0253    0.0000 C    0  0  0  0  0  0  0  0  0  0  0  0
    0.7947   -0.0253    0.0000 N    0  0  0  0  0  0  0  0  0  0  0  0
    0.7947    0.7997    0.0000 C    0  0  0  0  0  0  0  0  0  0  0  0
    1.5092    1.2122    0.0000 N    0  0  0  0  0  0  0  0  0  0  0  0
    0.0802    1.2122    0.0000 N    0  0  0  0  0  0  0  0  0  0  0  0
    1.5092    2.0372    0.0000 O    0  0  0  0  0  0  0  0  0  0  0  0
  1  5  1  0  0  0  0
  2  3  2  0  0  0  0
  2  7  1  0  0  0  0
  2  8  1  0  0  0  0
  3  4  1  0  0  0  0
  4  5  2  0  0  0  0
  5  6  1  0  0  0  0
  6  7  2  0  0  0  0
  8  9  1  0  0  0  0
  9 10  1  0  0  0  0
  9 11  2  0  0  0  0
 10 12  1  0  0  0  0
M  END
> <DRUGBANK_ID>
DB04559

> <DRUG_GROUPS>
experimental

> <GENERIC_NAME>
N-(Chlorophenyl)-N'-Hydroxyguanidine

> <CHEMICAL_FORMULA>
C7H8ClN3O

> <MOLECULAR_WEIGHT>
185.611

> <EXACT_MASS>
185.0355896

> <IUPAC_NAME>
3-(4-chlorophenyl)-1-hydroxyguanidine

> <IUPAC_TRADITIONAL_NAME>
3-(4-chlorophenyl)-1-hydroxyguanidine

> <INCHI_IDENTIFIER>
InChI=1S/C7H8ClN3O/c8-5-1-3-6(4-2-5)10-7(9)11-12/h1-4,12H,(H3,9,10,11)

> <INCHI_KEY>
InChIKey=JYBXKTLYOMPMQY-UHFFFAOYSA-N

> <SMILES>
ONC(=N)NC1=CC=C(Cl)C=C1

> <JCHEM_ACCEPTOR_COUNT>
4

> <JCHEM_DONOR_COUNT>
4

> <JCHEM_ACIDIC_PKA>
14.81

> <JCHEM_BASIC_PKA>
8.3

> <JCHEM_PHYSIOLOGICAL_CHARGE>
1

> <ALOGPS_LOGP>
1.52

> <JCHEM_LOGP>
1.61

> <ALOGPS_LOGS>
-2.5

> <JCHEM_POLARIZABILITY>
17.61

> <JCHEM_POLAR_SURFACE_AREA>
68.14

> <JCHEM_REFRACTIVITY>
69.25

> <JCHEM_ROTATABLE_BOND_COUNT>
1

> <ALOGPS_SOLUBILITY>
6.35e-01 g/l __ 

$$$$
