
  Mrv0541 02231217382D          

 18 20  0  0  0  0            999 V2000
    3.6129    3.6138    0.0000 N   0  0  0  0  0  0  0  0  0  0  0  0
    3.2887    2.8552    0.0000 C   0  0  0  0  0  0  0  0  0  0  0  0
    3.7118    2.1470    0.0000 N   0  0  0  0  0  0  0  0  0  0  0  0
    3.1690    1.5257    0.0000 C   0  0  0  0  0  0  0  0  0  0  0  0
    2.4104    1.8499    0.0000 C   0  0  0  0  0  0  0  0  0  0  0  0
    1.7022    1.4268    0.0000 O   0  0  0  0  0  0  0  0  0  0  0  0
    2.4844    2.6716    0.0000 N   0  0  0  0  0  0  0  0  0  0  0  0
    3.3526    0.7214    0.0000 C   0  0  0  0  0  0  0  0  0  0  0  0
    4.1569    0.5378    0.0000 C   0  0  0  0  0  0  0  0  0  0  0  0
    4.5149   -0.2055    0.0000 C   0  0  0  0  0  0  0  0  0  0  0  0
    4.1569   -0.9488    0.0000 N   0  0  0  0  0  0  0  0  0  0  0  0
    3.3526   -1.1324    0.0000 C   0  0  0  0  0  0  0  0  0  0  0  0
    3.1690   -1.9367    0.0000 O   0  0  0  0  0  0  0  0  0  0  0  0
    2.7076   -0.6180    0.0000 C   0  0  0  0  0  0  0  0  0  0  0  0
    1.9230   -0.8729    0.0000 N   0  0  0  0  0  0  0  0  0  0  0  0
    1.4380   -0.2055    0.0000 C   0  0  0  0  0  0  0  0  0  0  0  0
    1.9230    0.4619    0.0000 C   0  0  0  0  0  0  0  0  0  0  0  0
    2.7076    0.2070    0.0000 C   0  0  0  0  0  0  0  0  0  0  0  0
  1  2  1  0  0  0  0
  2  3  2  0  0  0  0
  3  4  1  0  0  0  0
  4  5  1  0  0  0  0
  5  6  2  0  0  0  0
  5  7  1  0  0  0  0
  2  7  1  0  0  0  0
  4  8  2  0  0  0  0
  8  9  1  0  0  0  0
  9 10  1  0  0  0  0
 10 11  1  0  0  0  0
 11 12  1  0  0  0  0
 12 13  2  0  0  0  0
 12 14  1  0  0  0  0
 14 15  4  0  0  0  0
 15 16  4  0  0  0  0
 16 17  4  0  0  0  0
 17 18  4  0  0  0  0
  8 18  1  0  0  0  0
 14 18  4  0  0  0  0
M  END
> <DRUGBANK_ID>
DB04367

> <DRUG_GROUPS>
experimental

> <GENERIC_NAME>
Debromohymenialdisine

> <CHEMICAL_FORMULA>
C11H10N5O2

> <MOLECULAR_WEIGHT>
244.2294

> <EXACT_MASS>
244.083449589

> <IUPAC_NAME>
2-amino-4-{8-oxo-4H,5H,6H,7H,8H-pyrrolo[2,3-c]azepin-4-ylidene}-4,5-dihydro-1H-imidazol-5-one

> <IUPAC_TRADITIONAL_NAME>
debromohymenialdisine

> <SMILES>
NC1=N\C(C(=O)N1)=C1/CCNC(=O)c2nccc12

> <JCHEM_ACCEPTOR_COUNT>
5

> <JCHEM_DONOR_COUNT>
3

> <JCHEM_ACIDIC_PKA>
11.04

> <JCHEM_BASIC_PKA>
2.67

> <JCHEM_PHYSIOLOGICAL_CHARGE>
0

> <ALOGPS_LOGP>
-0.62

> <JCHEM_LOGP>
-1.5

> <ALOGPS_LOGS>
-2.7

> <JCHEM_POLARIZABILITY>
23.64

> <JCHEM_POLAR_SURFACE_AREA>
109.47

> <JCHEM_REFRACTIVITY>
63.56

> <JCHEM_ROTATABLE_BOND_COUNT>
0

> <ALOGPS_SOLUBILITY>
4.92e-01 g/l __ 

$$$$
