
  Mrv0541 02231217332D          

 10 10  0  0  0  0            999 V2000
    1.4289   -1.6500    0.0000 O   0  0  0  0  0  0  0  0  0  0  0  0
    0.7145   -1.2375    0.0000 C   0  0  0  0  0  0  0  0  0  0  0  0
    0.0000   -1.6500    0.0000 O   0  0  0  0  0  0  0  0  0  0  0  0
    0.7145   -0.4125    0.0000 C   0  0  0  0  0  0  0  0  0  0  0  0
    0.0000    0.0000    0.0000 C   0  0  0  0  0  0  0  0  0  0  0  0
    0.0000    0.8250    0.0000 C   0  0  0  0  0  0  0  0  0  0  0  0
    0.7145    1.2375    0.0000 C   0  0  0  0  0  0  0  0  0  0  0  0
    0.7145    2.0625    0.0000 O   0  0  0  0  0  0  0  0  0  0  0  0
    1.4289    0.8250    0.0000 C   0  0  0  0  0  0  0  0  0  0  0  0
    1.4289    0.0000    0.0000 C   0  0  0  0  0  0  0  0  0  0  0  0
  1  2  1  0  0  0  0
  2  3  2  0  0  0  0
  2  4  1  0  0  0  0
  4  5  2  0  0  0  0
  5  6  1  0  0  0  0
  6  7  2  0  0  0  0
  7  8  1  0  0  0  0
  7  9  1  0  0  0  0
  9 10  2  0  0  0  0
  4 10  1  0  0  0  0
M  END
> <DRUGBANK_ID>
DB04242

> <DRUG_GROUPS>
experimental

> <GENERIC_NAME>
P-Hydroxybenzoic Acid

> <CHEMICAL_FORMULA>
C7H6O3

> <MOLECULAR_WEIGHT>
138.1207

> <EXACT_MASS>
138.031694058

> <IUPAC_NAME>
4-hydroxybenzoic acid

> <IUPAC_TRADITIONAL_NAME>
P-hydroxybenzoic acid

> <INCHI_IDENTIFIER>
InChI=1S/C7H6O3/c8-6-3-1-5(2-4-6)7(9)10/h1-4,8H,(H,9,10)

> <INCHI_KEY>
InChIKey=FJKROLUGYXJWQN-UHFFFAOYSA-N

> <SMILES>
OC(=O)C1=CC=C(O)C=C1

> <JCHEM_ACCEPTOR_COUNT>
3

> <JCHEM_DONOR_COUNT>
2

> <JCHEM_ACIDIC_PKA>
4.38

> <JCHEM_BASIC_PKA>
-6.1

> <JCHEM_PHYSIOLOGICAL_CHARGE>
-1

> <ALOGPS_LOGP>
1.58

> <JCHEM_LOGP>
1.33

> <ALOGPS_LOGS>
-1.1

> <JCHEM_POLARIZABILITY>
12.94

> <JCHEM_POLAR_SURFACE_AREA>
57.53

> <JCHEM_REFRACTIVITY>
35.3

> <JCHEM_ROTATABLE_BOND_COUNT>
1

> <ALOGPS_SOLUBILITY>
1.19e+01 g/l __ 

$$$$
