
  Mrv0541 02231217332D          

 12 11  0  0  0  0            999 V2000
    2.9980   -2.5559    0.0000 C   0  0  0  0  0  0  0  0  0  0  0  0
    3.7125   -2.1434    0.0000 C   0  0  0  0  0  0  0  0  0  0  0  0
    4.4270   -2.5559    0.0000 C   0  0  0  0  0  0  0  0  0  0  0  0
    5.1414   -2.1434    0.0000 C   0  0  0  0  0  0  0  0  0  0  0  0
    5.1414   -1.3184    0.0000 O   0  0  0  0  0  0  0  0  0  0  0  0
    5.8559   -2.5559    0.0000 S   0  0  0  0  0  0  0  0  0  0  0  0
    6.5704   -2.1434    0.0000 C   0  0  0  0  0  0  0  0  0  0  0  0
    7.2849   -2.5559    0.0000 C   0  0  0  0  0  0  0  0  0  0  0  0
    7.9993   -2.1434    0.0000 N   0  3  0  0  0  0  0  0  0  0  0  0
    8.7138   -1.7309    0.0000 C   0  0  0  0  0  0  0  0  0  0  0  0
    8.4118   -2.8579    0.0000 C   0  0  0  0  0  0  0  0  0  0  0  0
    7.5868   -1.4289    0.0000 C   0  0  0  0  0  0  0  0  0  0  0  0
  1  2  1  0  0  0  0
  2  3  1  0  0  0  0
  3  4  1  0  0  0  0
  4  5  2  0  0  0  0
  4  6  1  0  0  0  0
  6  7  1  0  0  0  0
  7  8  1  0  0  0  0
  8  9  1  0  0  0  0
  9 10  1  0  0  0  0
  9 11  1  0  0  0  0
  9 12  1  0  0  0  0
M  END
> <DRUGBANK_ID>
DB04250

> <DRUG_GROUPS>
experimental

> <GENERIC_NAME>
Butyrylthiocholine

> <CHEMICAL_FORMULA>
C9H20NOS

> <MOLECULAR_WEIGHT>
190.326

> <EXACT_MASS>
190.126559957

> <IUPAC_NAME>
[2-(butanoylsulfanyl)ethyl]trimethylazanium

> <IUPAC_TRADITIONAL_NAME>
butyrylthiocholine

> <INCHI_IDENTIFIER>
InChI=1S/C9H20NOS/c1-5-6-9(11)12-8-7-10(2,3)4/h5-8H2,1-4H3/q+1

> <INCHI_KEY>
InChIKey=AWBGQVBMGBZGLS-UHFFFAOYSA-N

> <SMILES>
CCCC(=O)SCC[N+](C)(C)C

> <JCHEM_ACCEPTOR_COUNT>
1

> <JCHEM_DONOR_COUNT>
0

> <JCHEM_BASIC_PKA>
-6.1

> <JCHEM_PHYSIOLOGICAL_CHARGE>
1

> <ALOGPS_LOGP>
-2.4

> <JCHEM_LOGP>
-2.6

> <ALOGPS_LOGS>
-4.6

> <JCHEM_POLARIZABILITY>
22.74

> <JCHEM_POLAR_SURFACE_AREA>
17.07

> <JCHEM_REFRACTIVITY>
67.07

> <JCHEM_ROTATABLE_BOND_COUNT>
6

> <ALOGPS_SOLUBILITY>
6.06e-03 g/l __ 

$$$$
