
  Mrv0541 02231217312D          

 36 38  0  0  1  0            999 V2000
    2.1434    0.4125    0.0000 C   0  0  0  0  0  0  0  0  0  0  0  0
    2.8579    0.0000    0.0000 C   0  0  0  0  0  0  0  0  0  0  0  0
    3.5724    0.4125    0.0000 C   0  0  0  0  0  0  0  0  0  0  0  0
    4.2868    0.0000    0.0000 N   0  0  0  0  0  0  0  0  0  0  0  0
    5.0013    0.4125    0.0000 C   0  0  0  0  0  0  0  0  0  0  0  0
    5.7158    0.0000    0.0000 C   0  0  0  0  0  0  0  0  0  0  0  0
    5.7158   -0.8250    0.0000 N   0  0  0  0  0  0  0  0  0  0  0  0
    6.4302   -1.2375    0.0000 C   0  0  0  0  0  0  0  0  0  0  0  0
    7.1447   -0.8250    0.0000 C   0  0  0  0  0  0  0  0  0  0  0  0
    7.8592   -1.2375    0.0000 C   0  0  0  0  0  0  0  0  0  0  0  0
    8.5737   -0.8250    0.0000 N   0  0  0  0  0  0  0  0  0  0  0  0
    9.2881   -1.2375    0.0000 C   0  0  0  0  0  0  0  0  0  0  0  0
    9.2881   -2.0625    0.0000 O   0  0  0  0  0  0  0  0  0  0  0  0
   10.0026   -0.8250    0.0000 C   0  0  0  0  0  0  0  0  0  0  0  0
   10.0026    0.0000    0.0000 C   0  0  0  0  0  0  0  0  0  0  0  0
   10.7171    0.4125    0.0000 C   0  0  0  0  0  0  0  0  0  0  0  0
   11.4315    0.0000    0.0000 C   0  0  0  0  0  0  0  0  0  0  0  0
   11.4315   -0.8250    0.0000 C   0  0  0  0  0  0  0  0  0  0  0  0
   12.1460   -1.2375    0.0000 O   0  0  0  0  0  0  0  0  0  0  0  0
   12.1460   -2.0625    0.0000 C   0  0  1  0  0  0  0  0  0  0  0  0
   12.8605   -2.4750    0.0000 O   0  0  0  0  0  0  0  0  0  0  0  0
   12.8605   -3.3000    0.0000 C   0  0  2  0  0  0  0  0  0  0  0  0
   13.5749   -3.7125    0.0000 C   0  0  0  0  0  0  0  0  0  0  0  0
   14.2894   -3.3000    0.0000 O   0  0  0  0  0  0  0  0  0  0  0  0
   12.1460   -3.7125    0.0000 C   0  0  2  0  0  0  0  0  0  0  0  0
   12.1460   -4.5375    0.0000 O   0  0  0  0  0  0  0  0  0  0  0  0
   11.4315   -3.3000    0.0000 C   0  0  2  0  0  0  0  0  0  0  0  0
   10.7171   -3.7125    0.0000 O   0  0  0  0  0  0  0  0  0  0  0  0
   11.4315   -2.4750    0.0000 C   0  0  1  0  0  0  0  0  0  0  0  0
   10.7171   -2.0625    0.0000 O   0  0  0  0  0  0  0  0  0  0  0  0
   10.7171   -1.2375    0.0000 C   0  0  0  0  0  0  0  0  0  0  0  0
   10.7171    1.2375    0.0000 N   0  3  0  0  0  0  0  0  0  0  0  0
   11.4315    1.6500    0.0000 O   0  5  0  0  0  0  0  0  0  0  0  0
   10.0026    1.6500    0.0000 O   0  0  0  0  0  0  0  0  0  0  0  0
    5.0013   -1.2375    0.0000 C   0  0  0  0  0  0  0  0  0  0  0  0
    4.2868   -0.8250    0.0000 C   0  0  0  0  0  0  0  0  0  0  0  0
  1  2  1  0  0  0  0
  2  3  1  0  0  0  0
  3  4  1  0  0  0  0
  4  5  1  0  0  0  0
  5  6  1  0  0  0  0
  6  7  1  0  0  0  0
  7  8  1  0  0  0  0
  8  9  1  0  0  0  0
  9 10  1  0  0  0  0
 10 11  1  0  0  0  0
 11 12  1  0  0  0  0
 12 13  2  0  0  0  0
 12 14  1  0  0  0  0
 14 15  2  0  0  0  0
 15 16  1  0  0  0  0
 16 17  2  0  0  0  0
 17 18  1  0  0  0  0
 18 19  1  0  0  0  0
 20 19  1  1  0  0  0
 20 21  1  0  0  0  0
 21 22  1  0  0  0  0
 22 23  1  6  0  0  0
 23 24  1  0  0  0  0
 22 25  1  0  0  0  0
 25 26  1  6  0  0  0
 25 27  1  0  0  0  0
 27 28  1  6  0  0  0
 27 29  1  0  0  0  0
 20 29  1  0  0  0  0
 29 30  1  1  0  0  0
 18 31  2  0  0  0  0
 14 31  1  0  0  0  0
 16 32  1  0  0  0  0
 32 33  1  0  0  0  0
 32 34  2  0  0  0  0
  7 35  1  0  0  0  0
 35 36  1  0  0  0  0
  4 36  1  0  0  0  0
M  END
> <DRUGBANK_ID>
DB04210

> <DRUG_GROUPS>
experimental

> <GENERIC_NAME>
BV1

> <CHEMICAL_FORMULA>
C23H36N4O9

> <MOLECULAR_WEIGHT>
512.5533

> <EXACT_MASS>
512.24822877

> <IUPAC_NAME>
3-nitro-N-[3-(4-propylpiperazin-1-yl)propyl]-5-{[(2R,3R,4S,5R,6R)-3,4,5-trihydroxy-6-(hydroxymethyl)oxan-2-yl]oxy}benzamide

> <IUPAC_TRADITIONAL_NAME>
BV1

> <INCHI_IDENTIFIER>
InChI=1S/C23H36N4O9/c1-2-5-25-7-9-26(10-8-25)6-3-4-24-22(32)15-11-16(27(33)34)13-17(12-15)35-23-21(31)20(30)19(29)18(14-28)36-23/h11-13,18-21,23,28-31H,2-10,14H2,1H3,(H,24,32)/t18-,19+,20+,21-,23+/m1/s1

> <INCHI_KEY>
InChIKey=ZIIQWIUUIAULLO-MKQKURRLSA-N

> <SMILES>
CCCN1CCN(CCCNC(=O)C2=CC(=CC(O[C@H]3O[C@H](CO)[C@H](O)[C@H](O)[C@H]3O)=C2)[N+]([O-])=O)CC1

> <JCHEM_ACCEPTOR_COUNT>
11

> <JCHEM_DONOR_COUNT>
5

> <JCHEM_ACIDIC_PKA>
12.18

> <JCHEM_BASIC_PKA>
8.85

> <JCHEM_PHYSIOLOGICAL_CHARGE>
1

> <ALOGPS_LOGP>
0.26

> <JCHEM_LOGP>
-0.78

> <ALOGPS_LOGS>
-2.1

> <JCHEM_POLARIZABILITY>
53.74

> <JCHEM_POLAR_SURFACE_AREA>
180.78

> <JCHEM_REFRACTIVITY>
129.69

> <JCHEM_ROTATABLE_BOND_COUNT>
11

> <ALOGPS_SOLUBILITY>
4.08e+00 g/l __ 

$$$$
