
  Mrv0541 02231217562D          

 30 32  0  0  1  0            999 V2000
    2.8579   -4.1250    0.0000 O   0  0  0  0  0  0  0  0  0  0  0  0
    2.8579   -4.9500    0.0000 C   0  0  2  0  0  0  0  0  0  0  0  0
    3.5724   -5.3625    0.0000 C   0  0  0  0  0  0  0  0  0  0  0  0
    3.5724   -6.1875    0.0000 O   0  0  0  0  0  0  0  0  0  0  0  0
    2.8579   -6.6000    0.0000 C   0  0  2  0  0  0  0  0  0  0  0  0
    2.8579   -7.4250    0.0000 S   0  0  0  0  0  0  0  0  0  0  0  0
    3.5724   -7.8375    0.0000 C   0  0  0  0  0  0  0  0  0  0  0  0
    3.5724   -8.6625    0.0000 C   0  0  1  0  0  0  0  0  0  0  0  0
    4.2868   -9.0750    0.0000 O   0  0  0  0  0  0  0  0  0  0  0  0
    4.2868   -9.9000    0.0000 C   0  0  1  0  0  0  0  0  0  0  0  0
    5.0013  -10.3125    0.0000 O   0  0  0  0  0  0  0  0  0  0  0  0
    5.0013  -11.1375    0.0000 C   0  0  0  0  0  0  0  0  0  0  0  0
    5.7158  -11.5500    0.0000 C   0  0  0  0  0  0  0  0  0  0  0  0
    5.7158  -12.3750    0.0000 C   0  0  0  0  0  0  0  0  0  0  0  0
    5.0013  -12.7875    0.0000 C   0  0  0  0  0  0  0  0  0  0  0  0
    4.2868  -12.3750    0.0000 C   0  0  0  0  0  0  0  0  0  0  0  0
    4.2868  -11.5500    0.0000 C   0  0  0  0  0  0  0  0  0  0  0  0
    5.0013  -13.6125    0.0000 N   0  3  0  0  0  0  0  0  0  0  0  0
    5.7158  -14.0250    0.0000 O   0  5  0  0  0  0  0  0  0  0  0  0
    4.2868  -14.0250    0.0000 O   0  0  0  0  0  0  0  0  0  0  0  0
    3.5724  -10.3125    0.0000 C   0  0  2  0  0  0  0  0  0  0  0  0
    3.5724  -11.1375    0.0000 O   0  0  0  0  0  0  0  0  0  0  0  0
    2.8579   -9.9000    0.0000 C   0  0  1  0  0  0  0  0  0  0  0  0
    2.1434  -10.3125    0.0000 O   0  0  0  0  0  0  0  0  0  0  0  0
    2.8579   -9.0750    0.0000 C   0  0  2  0  0  0  0  0  0  0  0  0
    2.1434   -8.6625    0.0000 O   0  0  0  0  0  0  0  0  0  0  0  0
    2.1434   -6.1875    0.0000 C   0  0  2  0  0  0  0  0  0  0  0  0
    1.4289   -6.6000    0.0000 O   0  0  0  0  0  0  0  0  0  0  0  0
    2.1434   -5.3625    0.0000 C   0  0  1  0  0  0  0  0  0  0  0  0
    1.4289   -4.9500    0.0000 O   0  0  0  0  0  0  0  0  0  0  0  0
  2  1  1  6  0  0  0
  2  3  1  0  0  0  0
  3  4  1  0  0  0  0
  4  5  1  0  0  0  0
  5  6  1  6  0  0  0
  6  7  1  0  0  0  0
  8  7  1  1  0  0  0
  8  9  1  0  0  0  0
  9 10  1  0  0  0  0
 10 11  1  1  0  0  0
 11 12  1  0  0  0  0
 12 13  2  0  0  0  0
 13 14  1  0  0  0  0
 14 15  2  0  0  0  0
 15 16  1  0  0  0  0
 16 17  2  0  0  0  0
 12 17  1  0  0  0  0
 15 18  1  0  0  0  0
 18 19  1  0  0  0  0
 18 20  2  0  0  0  0
 10 21  1  0  0  0  0
 21 22  1  6  0  0  0
 21 23  1  0  0  0  0
 23 24  1  1  0  0  0
 23 25  1  0  0  0  0
  8 25  1  0  0  0  0
 25 26  1  6  0  0  0
  5 27  1  0  0  0  0
 27 28  1  6  0  0  0
 27 29  1  0  0  0  0
  2 29  1  0  0  0  0
 29 30  1  1  0  0  0
M  END
> <DRUGBANK_ID>
DB04807

> <DRUG_GROUPS>
experimental

> <GENERIC_NAME>
4-NITROPHENYL-(6-S-ALPHA-D-XYLOPYRANOSYL)-BETA-D-GLUCOPYRANOSIDE

> <CHEMICAL_FORMULA>
C17H23NO11S

> <MOLECULAR_WEIGHT>
449.43

> <EXACT_MASS>
449.099181273

> <IUPAC_NAME>
(2S,3R,4S,5S,6S)-2-(4-nitrophenoxy)-6-({[(2R,3R,4S,5R)-3,4,5-trihydroxyoxan-2-yl]sulfanyl}methyl)oxane-3,4,5-triol

> <IUPAC_TRADITIONAL_NAME>
(2S,3R,4S,5S,6S)-2-(4-nitrophenoxy)-6-({[(2R,3R,4S,5R)-3,4,5-trihydroxyoxan-2-yl]sulfanyl}methyl)oxane-3,4,5-triol

> <INCHI_IDENTIFIER>
InChI=1S/C17H23NO11S/c19-9-5-27-17(15(24)11(9)20)30-6-10-12(21)13(22)14(23)16(29-10)28-8-3-1-7(2-4-8)18(25)26/h1-4,9-17,19-24H,5-6H2/t9-,10-,11+,12-,13+,14-,15-,16-,17-/m1/s1

> <INCHI_KEY>
InChIKey=HQYVHBCTLFPWRQ-ZMFOIVQCSA-N

> <SMILES>
O[C@@H]1CO[C@H](SC[C@H]2O[C@@H](OC3=CC=C(C=C3)[N+]([O-])=O)[C@H](O)[C@@H](O)[C@@H]2O)[C@H](O)[C@H]1O

> <JCHEM_ACCEPTOR_COUNT>
11

> <JCHEM_DONOR_COUNT>
6

> <JCHEM_ACIDIC_PKA>
12.04

> <JCHEM_BASIC_PKA>
-3.5

> <JCHEM_PHYSIOLOGICAL_CHARGE>
0

> <ALOGPS_LOGP>
-0.85

> <JCHEM_LOGP>
-1.3

> <ALOGPS_LOGS>
-1.5

> <JCHEM_POLARIZABILITY>
42.13

> <JCHEM_POLAR_SURFACE_AREA>
194.89

> <JCHEM_REFRACTIVITY>
100.28

> <JCHEM_ROTATABLE_BOND_COUNT>
6

> <ALOGPS_SOLUBILITY>
1.40e+01 g/l __ 

$$$$
