NAT
  Mrv0541 02231217362D          

 21 22  0  0  0  0            999 V2000
   -1.4123    1.0413    0.0000 C   0  0  0  0  0  0  0  0  0  0  0  0
   -0.6978    0.6288    0.0000 C   0  0  0  0  0  0  0  0  0  0  0  0
   -0.6978   -0.1962    0.0000 C   0  0  0  0  0  0  0  0  0  0  0  0
   -1.4123   -0.6087    0.0000 C   0  0  0  0  0  0  0  0  0  0  0  0
   -2.1267   -0.1962    0.0000 C   0  0  0  0  0  0  0  0  0  0  0  0
   -2.1267    0.6288    0.0000 C   0  0  0  0  0  0  0  0  0  0  0  0
    0.0167    1.0413    0.0000 C   0  0  2  0  0  0  0  0  0  0  0  0
    0.0167    1.8663    0.0000 N   0  0  0  0  0  0  0  0  0  0  0  0
    0.7311    2.2788    0.0000 C   0  0  0  0  0  0  0  0  0  0  0  0
    1.4456    1.8663    0.0000 N   0  0  0  0  0  0  0  0  0  0  0  0
    1.4456    1.0413    0.0000 C   0  0  0  0  0  0  0  0  0  0  0  0
    0.7311    0.6288    0.0000 C   0  0  0  0  0  0  0  0  0  0  0  0
   -1.4123   -1.4337    0.0000 O   0  0  0  0  0  0  0  0  0  0  0  0
    0.7311   -0.1962    0.0000 C   0  0  0  0  0  0  0  0  0  0  0  0
    1.4456   -0.6087    0.0000 O   0  0  0  0  0  0  0  0  0  0  0  0
    1.4456   -1.4337    0.0000 C   0  0  0  0  0  0  0  0  0  0  0  0
    2.1601   -1.8462    0.0000 C   0  0  0  0  0  0  0  0  0  0  0  0
    2.1601    0.6288    0.0000 C   0  0  0  0  0  0  0  0  0  0  0  0
    0.0167   -0.6087    0.0000 O   0  0  0  0  0  0  0  0  0  0  0  0
    0.7311    3.1038    0.0000 S   0  0  0  0  0  0  0  0  0  0  0  0
   -0.4890    1.3332    0.0000 H   0  0  0  0  0  0  0  0  0  0  0  0
  1  2  2  0  0  0  0
  1  6  1  0  0  0  0
  2  3  1  0  0  0  0
  7  2  1  6  0  0  0
  3  4  2  0  0  0  0
  4  5  1  0  0  0  0
  4 13  1  0  0  0  0
  5  6  2  0  0  0  0
  7  8  1  0  0  0  0
  7 12  1  0  0  0  0
  7 21  1  1  0  0  0
  8  9  1  0  0  0  0
  9 10  1  0  0  0  0
  9 20  2  0  0  0  0
 10 11  1  0  0  0  0
 11 12  2  0  0  0  0
 11 18  1  0  0  0  0
 12 14  1  0  0  0  0
 14 15  1  0  0  0  0
 14 19  2  0  0  0  0
 15 16  1  0  0  0  0
 16 17  1  0  0  0  0
M  END
> <DRUGBANK_ID>
DB04331

> <DRUG_GROUPS>
experimental

> <GENERIC_NAME>
Monastrol

> <CHEMICAL_FORMULA>
C14H16N2O3S

> <MOLECULAR_WEIGHT>
292.353

> <EXACT_MASS>
292.088163078

> <IUPAC_NAME>
ethyl (4S)-4-(3-hydroxyphenyl)-6-methyl-2-sulfanylidene-1,2,3,4-tetrahydropyrimidine-5-carboxylate

> <IUPAC_TRADITIONAL_NAME>
monastrol

> <INCHI_IDENTIFIER>
InChI=1S/C14H16N2O3S/c1-3-19-13(18)11-8(2)15-14(20)16-12(11)9-5-4-6-10(17)7-9/h4-7,12,17H,3H2,1-2H3,(H2,15,16,20)/t12-/m0/s1

> <INCHI_KEY>
InChIKey=LOBCDGHHHHGHFA-LBPRGKRZSA-N

> <SMILES>
[H][C@]1(NC(=S)NC(C)=C1C(=O)OCC)C1=CC=CC(O)=C1

> <JCHEM_ACCEPTOR_COUNT>
2

> <JCHEM_DONOR_COUNT>
3

> <JCHEM_ACIDIC_PKA>
9.37

> <JCHEM_BASIC_PKA>
-3

> <JCHEM_PHYSIOLOGICAL_CHARGE>
0

> <ALOGPS_LOGP>
2.11

> <JCHEM_LOGP>
1.83

> <ALOGPS_LOGS>
-3.7

> <JCHEM_POLARIZABILITY>
30.17

> <JCHEM_POLAR_SURFACE_AREA>
70.59

> <JCHEM_REFRACTIVITY>
81.41

> <JCHEM_ROTATABLE_BOND_COUNT>
4

> <ALOGPS_SOLUBILITY>
6.03e-02 g/l __ 

$$$$
