
  Mrv0541 02231217452D          

 10  9  0  0  0  0            999 V2000
    1.7605   -1.8414    0.0000 O   0  0  0  0  0  0  0  0  0  0  0  0
    2.4750   -1.4289    0.0000 C   0  0  0  0  0  0  0  0  0  0  0  0
    2.4750   -0.6039    0.0000 O   0  0  0  0  0  0  0  0  0  0  0  0
    3.1895   -1.8414    0.0000 C   0  0  0  0  0  0  0  0  0  0  0  0
    3.9039   -1.4289    0.0000 N   0  3  0  0  0  0  0  0  0  0  0  0
    4.6184   -1.8414    0.0000 C   0  0  0  0  0  0  0  0  0  0  0  0
    5.3329   -1.4289    0.0000 P   0  0  0  0  0  0  0  0  0  0  0  0
    6.0474   -1.0164    0.0000 O   0  0  0  0  0  0  0  0  0  0  0  0
    5.7454   -2.1434    0.0000 O   0  0  0  0  0  0  0  0  0  0  0  0
    4.9204   -0.7145    0.0000 O   0  0  0  0  0  0  0  0  0  0  0  0
  1  2  1  0  0  0  0
  2  3  2  0  0  0  0
  2  4  1  0  0  0  0
  4  5  1  0  0  0  0
  5  6  1  0  0  0  0
  6  7  1  0  0  0  0
  7  8  1  0  0  0  0
  7  9  1  0  0  0  0
  7 10  2  0  0  0  0
M  END
> <DRUGBANK_ID>
DB04539

> <DRUG_GROUPS>
experimental

> <GENERIC_NAME>
Glyphosate

> <CHEMICAL_FORMULA>
C3H9NO5P

> <MOLECULAR_WEIGHT>
170.081

> <EXACT_MASS>
170.021833915

> <IUPAC_NAME>
(carboxymethyl)(phosphonomethyl)azanium

> <IUPAC_TRADITIONAL_NAME>
glyphosate

> <INCHI_IDENTIFIER>
InChI=1S/C3H8NO5P/c5-3(6)1-4-2-10(7,8)9/h4H,1-2H2,(H,5,6)(H2,7,8,9)/p+1

> <INCHI_KEY>
InChIKey=XDDAORKBJWWYJS-UHFFFAOYSA-O

> <SMILES>
OC(=O)C[NH2+]CP(O)(O)=O

> <JCHEM_ACCEPTOR_COUNT>
5

> <JCHEM_DONOR_COUNT>
4

> <JCHEM_ACIDIC_PKA>
-0.58

> <JCHEM_BASIC_PKA>
6.34

> <JCHEM_PHYSIOLOGICAL_CHARGE>
-2

> <ALOGPS_LOGP>
0.04

> <JCHEM_LOGP>
-3.1

> <ALOGPS_LOGS>
-1.3

> <JCHEM_POLARIZABILITY>
13.37

> <JCHEM_POLAR_SURFACE_AREA>
111.44

> <JCHEM_REFRACTIVITY>
42.77

> <JCHEM_ROTATABLE_BOND_COUNT>
4

> <ALOGPS_SOLUBILITY>
1.07e+01 g/l __ 

$$$$
