
  Mrv0541 02231217382D          

  6  6  0  0  0  0            999 V2000
    0.5678    1.9393    0.0000 O   0  0  0  0  0  0  0  0  0  0  0  0
    0.5678    1.1143    0.0000 B   0  0  0  0  0  0  0  0  0  0  0  0
    1.2352    0.6294    0.0000 O   0  0  0  0  0  0  0  0  0  0  0  0
    0.9803   -0.1553    0.0000 C   0  0  0  0  0  0  0  0  0  0  0  0
    0.1553   -0.1553    0.0000 C   0  0  0  0  0  0  0  0  0  0  0  0
   -0.0997    0.6294    0.0000 O   0  0  0  0  0  0  0  0  0  0  0  0
  1  2  1  0  0  0  0
  2  3  1  0  0  0  0
  3  4  1  0  0  0  0
  4  5  1  0  0  0  0
  5  6  1  0  0  0  0
  2  6  1  0  0  0  0
M  END
> <DRUGBANK_ID>
DB04369

> <DRUG_GROUPS>
experimental

> <GENERIC_NAME>
1,3,2-Dioxaborolan-2-Ol

> <CHEMICAL_FORMULA>
C2H5BO3

> <MOLECULAR_WEIGHT>
87.87

> <EXACT_MASS>
88.033174492

> <IUPAC_NAME>
1,3,2-dioxaborolan-2-ol

> <IUPAC_TRADITIONAL_NAME>
1,3,2-dioxaborolan-2-ol

> <INCHI_IDENTIFIER>
InChI=1S/C2H5BO3/c4-3-5-1-2-6-3/h4H,1-2H2

> <INCHI_KEY>
InChIKey=ZBEDLGKSWBORBS-UHFFFAOYSA-N

> <SMILES>
OB1OCCO1

> <JCHEM_ACCEPTOR_COUNT>
3

> <JCHEM_DONOR_COUNT>
1

> <JCHEM_ACIDIC_PKA>
8.98

> <JCHEM_BASIC_PKA>
-4.8

> <JCHEM_PHYSIOLOGICAL_CHARGE>
0

> <ALOGPS_LOGP>
-0.81

> <JCHEM_LOGP>
0.77

> <ALOGPS_LOGS>
0.89

> <JCHEM_POLARIZABILITY>
8.26

> <JCHEM_POLAR_SURFACE_AREA>
38.69

> <JCHEM_REFRACTIVITY>
14.69

> <JCHEM_ROTATABLE_BOND_COUNT>
0

> <ALOGPS_SOLUBILITY>
6.75e+02 g/l __ 

$$$$
