
  Mrv0541 02231217492D          

 39 40  0  0  1  0            999 V2000
    7.5609   -9.3153    0.0000 C   0  0  0  0  0  0  0  0  0  0  0  0
    7.4050   -8.5052    0.0000 C   0  0  0  0  0  0  0  0  0  0  0  0
    8.0287   -7.9651    0.0000 C   0  0  0  0  0  0  0  0  0  0  0  0
    6.6255   -8.2351    0.0000 C   0  0  0  0  0  0  0  0  0  0  0  0
    6.4696   -7.4250    0.0000 C   0  0  2  0  0  0  0  0  0  0  0  0
    5.6900   -7.1550    0.0000 N   0  0  0  0  0  0  0  0  0  0  0  0
    5.0664   -7.6950    0.0000 C   0  0  0  0  0  0  0  0  0  0  0  0
    5.2223   -8.5052    0.0000 O   0  0  0  0  0  0  0  0  0  0  0  0
    4.2868   -7.4250    0.0000 O   0  0  0  0  0  0  0  0  0  0  0  0
    3.6632   -7.9651    0.0000 C   0  0  0  0  0  0  0  0  0  0  0  0
    3.8191   -8.7752    0.0000 C   0  0  0  0  0  0  0  0  0  0  0  0
    4.5986   -9.0453    0.0000 C   0  0  0  0  0  0  0  0  0  0  0  0
    4.7546   -9.8554    0.0000 C   0  0  0  0  0  0  0  0  0  0  0  0
    4.1309  -10.3955    0.0000 C   0  0  0  0  0  0  0  0  0  0  0  0
    3.3514  -10.1254    0.0000 C   0  0  0  0  0  0  0  0  0  0  0  0
    3.1955   -9.3153    0.0000 C   0  0  0  0  0  0  0  0  0  0  0  0
    7.0932   -6.8849    0.0000 C   0  0  1  0  0  0  0  0  0  0  0  0
    6.9373   -6.0748    0.0000 O   0  0  0  0  0  0  0  0  0  0  0  0
    7.8728   -7.1550    0.0000 N   0  0  0  0  0  0  0  0  0  0  0  0
    8.4964   -6.6149    0.0000 C   0  0  1  0  0  0  0  0  0  0  0  0
    8.3405   -5.8047    0.0000 C   0  0  0  0  0  0  0  0  0  0  0  0
    8.9641   -5.2646    0.0000 C   0  0  0  0  0  0  0  0  0  0  0  0
    8.8082   -4.4545    0.0000 C   0  0  0  0  0  0  0  0  0  0  0  0
    9.7437   -5.5347    0.0000 C   0  0  0  0  0  0  0  0  0  0  0  0
    9.2760   -6.8849    0.0000 C   0  0  0  0  0  0  0  0  0  0  0  0
    9.4319   -7.6950    0.0000 O   0  0  0  0  0  0  0  0  0  0  0  0
    9.8996   -6.3448    0.0000 N   0  0  0  0  0  0  0  0  0  0  0  0
   10.6791   -6.6149    0.0000 C   0  0  1  0  0  0  0  0  0  0  0  0
   11.3028   -6.0748    0.0000 C   0  0  0  0  0  0  0  0  0  0  0  0
   12.0823   -6.3448    0.0000 C   0  0  0  0  0  0  0  0  0  0  0  0
   12.7060   -5.8047    0.0000 C   0  0  0  0  0  0  0  0  0  0  0  0
   13.4855   -6.0748    0.0000 C   0  0  0  0  0  0  0  0  0  0  0  0
   13.6414   -6.8849    0.0000 C   0  0  0  0  0  0  0  0  0  0  0  0
   14.4210   -7.1550    0.0000 O   0  0  0  0  0  0  0  0  0  0  0  0
   13.0178   -7.4250    0.0000 C   0  0  0  0  0  0  0  0  0  0  0  0
   12.2383   -7.1550    0.0000 C   0  0  0  0  0  0  0  0  0  0  0  0
   10.8351   -7.4250    0.0000 C   0  0  0  0  0  0  0  0  0  0  0  0
   11.6146   -7.6950    0.0000 C   0  0  0  0  0  0  0  0  0  0  0  0
   10.2114   -7.9651    0.0000 O   0  0  0  0  0  0  0  0  0  0  0  0
  1  2  1  0  0  0  0
  2  3  1  0  0  0  0
  2  4  1  0  0  0  0
  4  5  1  0  0  0  0
  5  6  1  6  0  0  0
  6  7  1  0  0  0  0
  7  8  2  0  0  0  0
  7  9  1  0  0  0  0
  9 10  1  0  0  0  0
 10 11  1  0  0  0  0
 11 12  2  0  0  0  0
 12 13  1  0  0  0  0
 13 14  2  0  0  0  0
 14 15  1  0  0  0  0
 15 16  2  0  0  0  0
 11 16  1  0  0  0  0
  5 17  1  0  0  0  0
 17 18  1  1  0  0  0
 17 19  1  0  0  0  0
 20 19  1  1  0  0  0
 20 21  1  0  0  0  0
 21 22  1  0  0  0  0
 22 23  1  0  0  0  0
 22 24  1  0  0  0  0
 20 25  1  0  0  0  0
 25 26  2  0  0  0  0
 25 27  1  0  0  0  0
 28 27  1  1  0  0  0
 28 29  1  0  0  0  0
 29 30  1  0  0  0  0
 30 31  2  0  0  0  0
 31 32  1  0  0  0  0
 32 33  2  0  0  0  0
 33 34  1  0  0  0  0
 33 35  1  0  0  0  0
 35 36  2  0  0  0  0
 30 36  1  0  0  0  0
 28 37  1  0  0  0  0
 37 38  1  0  0  0  0
 37 39  2  0  0  0  0
M  END
> <DRUGBANK_ID>
DB04653

> <DRUG_GROUPS>
experimental

> <GENERIC_NAME>
CBZ-LEU-LEU-TYR-CH2F

> <CHEMICAL_FORMULA>
C30H43N3O6

> <MOLECULAR_WEIGHT>
541.6789

> <EXACT_MASS>
541.315186123

> <IUPAC_NAME>
benzyl N-[(1R,2S)-1-hydroxy-1-{[(1S)-1-{[(2S)-1-(4-hydroxyphenyl)-3-oxobutan-2-yl]carbamoyl}-3-methylbutyl]amino}-4-methylpentan-2-yl]carbamate

> <IUPAC_TRADITIONAL_NAME>
benzyl N-[(1R,2S)-1-hydroxy-1-{[(1S)-1-{[(2S)-1-(4-hydroxyphenyl)-3-oxobutan-2-yl]carbamoyl}-3-methylbutyl]amino}-4-methylpentan-2-yl]carbamate

> <INCHI_IDENTIFIER>
InChI=1S/C30H43N3O6/c1-19(2)15-26(28(36)31-25(21(5)34)17-22-11-13-24(35)14-12-22)32-29(37)27(16-20(3)4)33-30(38)39-18-23-9-7-6-8-10-23/h6-14,19-20,25-27,29,32,35,37H,15-18H2,1-5H3,(H,31,36)(H,33,38)/t25-,26-,27-,29+/m0/s1

> <INCHI_KEY>
InChIKey=FVHOZBBGUIEWAG-PFWSVGDOSA-N

> <SMILES>
CC(C)C[C@H](NC(=O)OCC1=CC=CC=C1)[C@@H](O)N[C@@H](CC(C)C)C(=O)N[C@@H](CC1=CC=C(O)C=C1)C(C)=O

> <JCHEM_ACCEPTOR_COUNT>
6

> <JCHEM_DONOR_COUNT>
5

> <JCHEM_ACIDIC_PKA>
9.51

> <JCHEM_BASIC_PKA>
7.54

> <JCHEM_PHYSIOLOGICAL_CHARGE>
1

> <ALOGPS_LOGP>
3.02

> <JCHEM_LOGP>
4.79

> <ALOGPS_LOGS>
-4.9

> <JCHEM_POLARIZABILITY>
60.08

> <JCHEM_POLAR_SURFACE_AREA>
136.99

> <JCHEM_REFRACTIVITY>
149.15

> <JCHEM_ROTATABLE_BOND_COUNT>
16

> <ALOGPS_SOLUBILITY>
6.56e-03 g/l __ 

$$$$
