NTS
  Mrv0541 02231217392D          

 22 23  0  0  0  0            999 V2000
   -0.5657   -0.8132    0.0000 C   0  0  0  0  0  0  0  0  0  0  0  0
   -1.2802   -0.4007    0.0000 C   0  0  0  0  0  0  0  0  0  0  0  0
   -1.2802    0.4243    0.0000 C   0  0  0  0  0  0  0  0  0  0  0  0
   -0.5657    0.8368    0.0000 C   0  0  0  0  0  0  0  0  0  0  0  0
    0.8633    0.8368    0.0000 C   0  0  0  0  0  0  0  0  0  0  0  0
    1.5777    0.4243    0.0000 C   0  0  0  0  0  0  0  0  0  0  0  0
    1.5777   -0.4007    0.0000 C   0  0  0  0  0  0  0  0  0  0  0  0
    0.8633   -0.8132    0.0000 C   0  0  0  0  0  0  0  0  0  0  0  0
    0.1488   -0.4007    0.0000 C   0  0  0  0  0  0  0  0  0  0  0  0
    0.1488    0.4243    0.0000 C   0  0  0  0  0  0  0  0  0  0  0  0
   -0.5657   -2.4632    0.0000 O   0  0  0  0  0  0  0  0  0  0  0  0
    0.2593   -1.6382    0.0000 O   0  0  0  0  0  0  0  0  0  0  0  0
   -1.3907   -1.6382    0.0000 O   0  5  0  0  0  0  0  0  0  0  0  0
   -2.7091    1.2493    0.0000 O   0  0  0  0  0  0  0  0  0  0  0  0
   -1.5821    1.5513    0.0000 O   0  0  0  0  0  0  0  0  0  0  0  0
   -2.4071    0.1223    0.0000 O   0  5  0  0  0  0  0  0  0  0  0  0
    3.0067    1.2493    0.0000 O   0  0  0  0  0  0  0  0  0  0  0  0
    2.7047    0.1223    0.0000 O   0  0  0  0  0  0  0  0  0  0  0  0
    1.8797    1.5513    0.0000 O   0  5  0  0  0  0  0  0  0  0  0  0
   -0.5657   -1.6382    0.0000 S   0  0  0  0  0  0  0  0  0  0  0  0
   -1.9946    0.8368    0.0000 S   0  0  0  0  0  0  0  0  0  0  0  0
    2.2922    0.8368    0.0000 S   0  0  0  0  0  0  0  0  0  0  0  0
  1  2  2  0  0  0  0
  1  9  1  0  0  0  0
  1 20  1  0  0  0  0
  2  3  1  0  0  0  0
  3  4  2  0  0  0  0
  3 21  1  0  0  0  0
  4 10  1  0  0  0  0
  5  6  2  0  0  0  0
  5 10  1  0  0  0  0
  6  7  1  0  0  0  0
  6 22  1  0  0  0  0
  7  8  2  0  0  0  0
  8  9  1  0  0  0  0
  9 10  2  0  0  0  0
 11 20  2  0  0  0  0
 12 20  2  0  0  0  0
 13 20  1  0  0  0  0
 14 21  2  0  0  0  0
 15 21  2  0  0  0  0
 16 21  1  0  0  0  0
 17 22  2  0  0  0  0
 18 22  2  0  0  0  0
 19 22  1  0  0  0  0
M  END
> <DRUGBANK_ID>
DB04409

> <DRUG_GROUPS>
experimental

> <GENERIC_NAME>
Naphthalene Trisulfonate

> <CHEMICAL_FORMULA>
C10H5O9S3

> <MOLECULAR_WEIGHT>
365.336

> <EXACT_MASS>
364.909568828

> <IUPAC_NAME>
naphthalene-1,3,6-trisulfonate

> <IUPAC_TRADITIONAL_NAME>
naphthalene trisulfonate

> <INCHI_IDENTIFIER>
InChI=1S/C10H8O9S3/c11-20(12,13)7-1-2-9-6(3-7)4-8(21(14,15)16)5-10(9)22(17,18)19/h1-5H,(H,11,12,13)(H,14,15,16)(H,17,18,19)/p-3

> <INCHI_KEY>
InChIKey=ZPBSAMLXSQCSOX-UHFFFAOYSA-K

> <SMILES>
[O-]S(=O)(=O)C1=CC2=C(C=C1)C(=CC(=C2)S([O-])(=O)=O)S([O-])(=O)=O

> <JCHEM_ACCEPTOR_COUNT>
9

> <JCHEM_DONOR_COUNT>
0

> <JCHEM_ACIDIC_PKA>
-3.3

> <JCHEM_PHYSIOLOGICAL_CHARGE>
-3

> <ALOGPS_LOGP>
-0.69

> <JCHEM_LOGP>
0.51

> <ALOGPS_LOGS>
-3.1

> <JCHEM_POLARIZABILITY>
30.31

> <JCHEM_POLAR_SURFACE_AREA>
171.6

> <JCHEM_REFRACTIVITY>
71.01

> <JCHEM_ROTATABLE_BOND_COUNT>
3

> <ALOGPS_SOLUBILITY>
3.56e-01 g/l __ 

$$$$
