4839
  Mrv0541 02231217572D          

 31 35  0  0  1  0            999 V2000
    7.0790    0.9766    0.0000 Cl   0  0  0  0  0  0  0  0  0  0  0  0
    2.4286    0.5660    0.0000 O    0  0  0  0  0  0  0  0  0  0  0  0
    7.8121   -1.8482    0.0000 O    0  0  0  0  0  0  0  0  0  0  0  0
    1.5936    1.0218    0.0000 O    0  0  0  0  0  0  0  0  0  0  0  0
    5.6989   -0.6170    0.0000 C    0  0  1  0  0  0  0  0  0  0  0  0
    5.0089   -0.2187    0.0000 C    0  0  2  0  0  0  0  0  0  0  0  0
    5.6862   -1.4469    0.0000 C    0  0  2  0  0  0  0  0  0  0  0  0
    3.5747    0.5947    0.0000 C    0  0  2  0  0  0  0  0  0  0  0  0
    4.2967    1.0042    0.0000 C    0  0  2  0  0  0  0  0  0  0  0  0
    5.0089    0.5782    0.0000 C    0  0  2  0  0  0  0  0  0  0  0  0
    6.4017   -1.8674    0.0000 C    0  0  1  0  0  0  0  0  0  0  0  0
    5.6796   -2.2772    0.0000 C    0  0  0  0  0  0  0  0  0  0  0  0
    4.2967   -0.6447    0.0000 C    0  0  0  0  0  0  0  0  0  0  0  0
    3.5747   -0.2352    0.0000 C    0  0  0  0  0  0  0  0  0  0  0  0
    2.9674    1.1531    0.0000 C    0  0  1  0  0  0  0  0  0  0  0  0
    4.1293    1.8120    0.0000 C    0  0  0  0  0  0  0  0  0  0  0  0
    6.3890   -0.2187    0.0000 C    0  0  0  0  0  0  0  0  0  0  0  0
    3.3094    1.9039    0.0000 C    0  0  0  0  0  0  0  0  0  0  0  0
    5.0089   -1.0154    0.0000 C    0  0  0  0  0  0  0  0  0  0  0  0
    5.6989    0.9766    0.0000 C    0  0  0  0  0  0  0  0  0  0  0  0
    2.8817    0.2017    0.0000 C    0  0  0  0  0  0  0  0  0  0  0  0
    7.1205   -1.4524    0.0000 C    0  0  0  0  0  0  0  0  0  0  0  0
    6.3890    0.5782    0.0000 C    0  0  0  0  0  0  0  0  0  0  0  0
    7.1141   -0.6224    0.0000 C    0  0  0  0  0  0  0  0  0  0  0  0
    2.2425    1.4840    0.0000 C    0  0  0  0  0  0  0  0  0  0  0  0
    2.1668    2.2772    0.0000 C    0  0  0  0  0  0  0  0  0  0  0  0
    5.0139   -0.8560    0.0000 H    0  0  0  0  0  0  0  0  0  0  0  0
    5.0488   -1.4394    0.0000 H    0  0  0  0  0  0  0  0  0  0  0  0
    4.8162    1.3734    0.0000 H    0  0  0  0  0  0  0  0  0  0  0  0
    5.5610    0.2594    0.0000 H    0  0  0  0  0  0  0  0  0  0  0  0
    6.7184   -2.4206    0.0000 H    0  0  0  0  0  0  0  0  0  0  0  0
  1 23  1  0  0  0  0
 15  2  1  6  0  0  0
  3 22  2  0  0  0  0
  4 25  2  0  0  0  0
  5  6  1  0  0  0  0
  5  7  1  0  0  0  0
  5 17  1  0  0  0  0
  5 19  1  1  0  0  0
  6 10  1  0  0  0  0
  6 13  1  0  0  0  0
  6 27  1  6  0  0  0
  7 11  1  0  0  0  0
  7 12  1  0  0  0  0
  7 28  1  1  0  0  0
  8  9  1  0  0  0  0
  8 14  1  0  0  0  0
  8 15  1  0  0  0  0
  8 21  1  1  0  0  0
  9 10  1  0  0  0  0
  9 16  1  0  0  0  0
  9 29  1  6  0  0  0
 10 20  1  0  0  0  0
 10 30  1  1  0  0  0
 11 12  1  0  0  0  0
 11 22  1  0  0  0  0
 11 31  1  1  0  0  0
 13 14  1  0  0  0  0
 15 18  1  0  0  0  0
 15 25  1  0  0  0  0
 16 18  1  0  0  0  0
 17 23  1  0  0  0  0
 17 24  2  0  0  0  0
 20 23  2  0  0  0  0
 22 24  1  0  0  0  0
 25 26  1  0  0  0  0
M  END
> <DRUGBANK_ID>
DB04839

> <DRUG_GROUPS>
approved; investigational

> <GENERIC_NAME>
Cyproterone

> <SALTS>
Cyproterone acetate

> <BRANDS>


> <CHEMICAL_FORMULA>
C22H27ClO3

> <MOLECULAR_WEIGHT>
374.901

> <EXACT_MASS>
374.164872437

> <IUPAC_NAME>
(1S,2S,3S,5R,11R,12S,15R,16S)-15-acetyl-9-chloro-15-hydroxy-2,16-dimethylpentacyclo[9.7.0.0^{2,8}.0^{3,5}.0^{12,16}]octadeca-7,9-dien-6-one

> <IUPAC_TRADITIONAL_NAME>
cyproterone

> <INCHI_IDENTIFIER>
InChI=1S/C22H27ClO3/c1-11(24)22(26)7-5-14-12-9-18(23)17-10-19(25)13-8-16(13)21(17,3)15(12)4-6-20(14,22)2/h9-10,12-16,26H,4-8H2,1-3H3/t12-,13+,14-,15-,16-,20-,21-,22-/m0/s1

> <INCHI_KEY>
InChIKey=DUSHUSLJJMDGTE-ZJPMUUANSA-N

> <SMILES>
[H][C@@]12C[C@]1([H])[C@@]1(C)C(=CC2=O)C(Cl)=C[C@@]2([H])[C@]3([H])CC[C@](O)(C(C)=O)[C@@]3(C)CC[C@]12[H]

> <JCHEM_ACCEPTOR_COUNT>
3

> <JCHEM_DONOR_COUNT>
1

> <JCHEM_ACIDIC_PKA>
12.7

> <JCHEM_BASIC_PKA>
-3.8

> <JCHEM_PHYSIOLOGICAL_CHARGE>
0

> <ALOGPS_LOGP>
3.37

> <JCHEM_LOGP>
3.2

> <ALOGPS_LOGS>
-4.8

> <JCHEM_POLARIZABILITY>
40.67

> <JCHEM_POLAR_SURFACE_AREA>
54.37

> <JCHEM_REFRACTIVITY>
102.66

> <JCHEM_ROTATABLE_BOND_COUNT>
1

> <ALOGPS_SOLUBILITY>
6.65e-03 g/l __ 

$$$$
