CK5
  Mrv0541 02231217442D          

 21 23  0  0  0  0            999 V2000
    0.5103    3.2996    0.0000 O   0  0  0  0  0  0  0  0  0  0  0  0
   -0.2042    2.8871    0.0000 C   0  0  0  0  0  0  0  0  0  0  0  0
   -0.2042    2.0621    0.0000 C   0  0  0  0  0  0  0  0  0  0  0  0
   -0.9187    1.6496    0.0000 C   0  0  0  0  0  0  0  0  0  0  0  0
   -1.6332    2.0621    0.0000 C   0  0  0  0  0  0  0  0  0  0  0  0
   -1.6332    2.8871    0.0000 C   0  0  0  0  0  0  0  0  0  0  0  0
   -0.9187    3.2996    0.0000 C   0  0  0  0  0  0  0  0  0  0  0  0
   -0.9187    0.8246    0.0000 N   0  0  0  0  0  0  0  0  0  0  0  0
   -0.2042    0.4121    0.0000 C   0  0  0  0  0  0  0  0  0  0  0  0
    0.5103    0.8246    0.0000 N   0  0  0  0  0  0  0  0  0  0  0  0
    1.2247    0.4121    0.0000 C   0  0  0  0  0  0  0  0  0  0  0  0
   -0.2042   -0.4129    0.0000 N   0  0  0  0  0  0  0  0  0  0  0  0
    0.5103   -0.8254    0.0000 C   0  0  0  0  0  0  0  0  0  0  0  0
    1.2247   -0.4129    0.0000 C   0  0  0  0  0  0  0  0  0  0  0  0
    0.5103   -1.6504    0.0000 C   0  0  0  0  0  0  0  0  0  0  0  0
    1.1777   -2.1354    0.0000 C   0  0  0  0  0  0  0  0  0  0  0  0
    1.9623   -1.8804    0.0000 C   0  0  0  0  0  0  0  0  0  0  0  0
   -0.1572   -2.1354    0.0000 S   0  0  0  0  0  0  0  0  0  0  0  0
    0.0978   -2.9200    0.0000 C   0  0  0  0  0  0  0  0  0  0  0  0
    0.9228   -2.9200    0.0000 N   0  0  0  0  0  0  0  0  0  0  0  0
   -0.3872   -3.5874    0.0000 C   0  0  0  0  0  0  0  0  0  0  0  0
  1  2  1  0  0  0  0
  2  3  2  0  0  0  0
  2  7  1  0  0  0  0
  3  4  1  0  0  0  0
  4  5  2  0  0  0  0
  4  8  1  0  0  0  0
  5  6  1  0  0  0  0
  6  7  2  0  0  0  0
  8  9  1  0  0  0  0
  9 10  2  0  0  0  0
  9 12  1  0  0  0  0
 10 11  1  0  0  0  0
 11 14  2  0  0  0  0
 12 13  2  0  0  0  0
 13 14  1  0  0  0  0
 13 15  1  0  0  0  0
 15 16  2  0  0  0  0
 15 18  1  0  0  0  0
 16 17  1  0  0  0  0
 16 20  1  0  0  0  0
 18 19  1  0  0  0  0
 19 20  2  0  0  0  0
 19 21  1  0  0  0  0
M  END
> <DRUGBANK_ID>
DB04518

> <DRUG_GROUPS>
experimental

> <GENERIC_NAME>
3-[4-(2,4-Dimethyl-Thiazol-5-Yl)-Pyrimidin-2-Ylamino]-Phenol

> <CHEMICAL_FORMULA>
C15H14N4OS

> <MOLECULAR_WEIGHT>
298.363

> <EXACT_MASS>
298.08883178

> <IUPAC_NAME>
3-{[4-(dimethyl-1,3-thiazol-5-yl)pyrimidin-2-yl]amino}phenol

> <IUPAC_TRADITIONAL_NAME>
3-{[4-(dimethyl-1,3-thiazol-5-yl)pyrimidin-2-yl]amino}phenol

> <INCHI_IDENTIFIER>
InChI=1S/C15H14N4OS/c1-9-14(21-10(2)17-9)13-6-7-16-15(19-13)18-11-4-3-5-12(20)8-11/h3-8,20H,1-2H3,(H,16,18,19)

> <INCHI_KEY>
InChIKey=JJDRRZFRTKZLFT-UHFFFAOYSA-N

> <SMILES>
CC1=NC(C)=C(S1)C1=NC(NC2=CC=CC(O)=C2)=NC=C1

> <JCHEM_ACCEPTOR_COUNT>
5

> <JCHEM_DONOR_COUNT>
2

> <JCHEM_ACIDIC_PKA>
9.63

> <JCHEM_BASIC_PKA>
2.69

> <JCHEM_PHYSIOLOGICAL_CHARGE>
0

> <ALOGPS_LOGP>
3.25

> <JCHEM_LOGP>
2.81

> <ALOGPS_LOGS>
-4.3

> <JCHEM_POLARIZABILITY>
31.42

> <JCHEM_POLAR_SURFACE_AREA>
70.93

> <JCHEM_REFRACTIVITY>
81.92

> <JCHEM_ROTATABLE_BOND_COUNT>
3

> <ALOGPS_SOLUBILITY>
1.58e-02 g/l __ 

$$$$
