
  Mrv0541 02231217332D          

 27 28  0  0  1  0            999 V2000
    3.5724    2.0625    0.0000 O   0  0  0  0  0  0  0  0  0  0  0  0
    4.2868    2.4750    0.0000 C   0  0  0  0  0  0  0  0  0  0  0  0
    5.0013    2.0625    0.0000 C   0  0  1  0  0  0  0  0  0  0  0  0
    5.0013    1.2375    0.0000 O   0  0  0  0  0  0  0  0  0  0  0  0
    5.7158    2.4750    0.0000 C   0  0  2  0  0  0  0  0  0  0  0  0
    5.7158    3.3000    0.0000 O   0  0  0  0  0  0  0  0  0  0  0  0
    6.4302    2.0625    0.0000 C   0  0  1  0  0  0  0  0  0  0  0  0
    6.4302    1.2375    0.0000 O   0  0  0  0  0  0  0  0  0  0  0  0
    7.1447    2.4750    0.0000 C   0  0  0  0  0  0  0  0  0  0  0  0
    7.8592    2.0625    0.0000 N   0  0  0  0  0  0  0  0  0  0  0  0
    8.5737    2.4750    0.0000 C   0  0  0  0  0  0  0  0  0  0  0  0
    8.5737    3.3000    0.0000 O   0  0  0  0  0  0  0  0  0  0  0  0
    9.2881    2.0625    0.0000 C   0  0  0  0  0  0  0  0  0  0  0  0
   10.0026    2.4750    0.0000 C   0  0  0  0  0  0  0  0  0  0  0  0
   10.0026    3.3000    0.0000 C   0  0  0  0  0  0  0  0  0  0  0  0
   10.7171    3.7125    0.0000 C   0  0  0  0  0  0  0  0  0  0  0  0
   10.7171    4.5375    0.0000 O   0  0  0  0  0  0  0  0  0  0  0  0
   11.4315    3.3000    0.0000 O   0  0  0  0  0  0  0  0  0  0  0  0
    9.2881    1.2375    0.0000 N   0  0  0  0  0  0  0  0  0  0  0  0
    8.5737    0.8250    0.0000 C   0  0  0  0  0  0  0  0  0  0  0  0
    8.5737    0.0000    0.0000 C   0  0  0  0  0  0  0  0  0  0  0  0
    9.2881   -0.4125    0.0000 O   0  0  0  0  0  0  0  0  0  0  0  0
    7.8592   -0.4125    0.0000 N   0  0  0  0  0  0  0  0  0  0  0  0
    7.1447    0.0000    0.0000 C   0  0  0  0  0  0  0  0  0  0  0  0
    6.4302   -0.4125    0.0000 O   0  0  0  0  0  0  0  0  0  0  0  0
    7.1447    0.8250    0.0000 N   0  0  0  0  0  0  0  0  0  0  0  0
    7.8592    1.2375    0.0000 C   0  0  0  0  0  0  0  0  0  0  0  0
  1  2  1  0  0  0  0
  2  3  1  0  0  0  0
  3  4  1  6  0  0  0
  3  5  1  0  0  0  0
  5  6  1  6  0  0  0
  5  7  1  0  0  0  0
  7  8  1  6  0  0  0
  7  9  1  0  0  0  0
  9 10  1  0  0  0  0
 10 11  1  0  0  0  0
 11 12  1  0  0  0  0
 11 13  2  0  0  0  0
 13 14  1  0  0  0  0
 14 15  1  0  0  0  0
 15 16  1  0  0  0  0
 16 17  1  0  0  0  0
 16 18  2  0  0  0  0
 13 19  1  0  0  0  0
 19 20  2  0  0  0  0
 20 21  1  0  0  0  0
 21 22  2  0  0  0  0
 21 23  1  0  0  0  0
 23 24  1  0  0  0  0
 24 25  2  0  0  0  0
 24 26  1  0  0  0  0
 26 27  2  0  0  0  0
 10 27  1  0  0  0  0
 20 27  1  0  0  0  0
M  END
> <DRUGBANK_ID>
DB04262

> <DRUG_GROUPS>
experimental

> <GENERIC_NAME>
3-(7-Hydroxy-8-Ribityllumazine-6-Yl) Propionic Acid

> <CHEMICAL_FORMULA>
C14H18N4O9

> <MOLECULAR_WEIGHT>
386.3141

> <EXACT_MASS>
386.107378194

> <IUPAC_NAME>
3-{7-hydroxy-2,4-dioxo-8-[(2S,3R,4R)-2,3,4,5-tetrahydroxypentyl]-2,3,4,8-tetrahydropteridin-6-yl}propanoic acid

> <IUPAC_TRADITIONAL_NAME>
3-{7-hydroxy-2,4-dioxo-8-[(2S,3R,4R)-2,3,4,5-tetrahydroxypentyl]-3H-pteridin-6-yl}propanoic acid

> <INCHI_IDENTIFIER>
InChI=1S/C14H18N4O9/c19-4-7(21)10(24)6(20)3-18-11-9(12(25)17-14(27)16-11)15-5(13(18)26)1-2-8(22)23/h6-7,10,19-21,24,26H,1-4H2,(H,22,23)(H,17,25,27)/t6-,7+,10+/m0/s1

> <INCHI_KEY>
InChIKey=ZUXCIPRCLKZSHS-NYNCVSEMSA-N

> <SMILES>
OC[C@@H](O)[C@H](O)[C@@H](O)CN1C(O)=C(CCC(O)=O)N=C2C(=O)NC(=O)N=C12

> <JCHEM_ACCEPTOR_COUNT>
12

> <JCHEM_DONOR_COUNT>
7

> <JCHEM_ACIDIC_PKA>
3.71

> <JCHEM_BASIC_PKA>
-3

> <JCHEM_PHYSIOLOGICAL_CHARGE>
-2

> <ALOGPS_LOGP>
-2.2

> <JCHEM_LOGP>
-3.2

> <ALOGPS_LOGS>
-2.4

> <JCHEM_POLARIZABILITY>
35.42

> <JCHEM_POLAR_SURFACE_AREA>
212.58

> <JCHEM_REFRACTIVITY>
95.25

> <JCHEM_ROTATABLE_BOND_COUNT>
8

> <ALOGPS_SOLUBILITY>
1.45e+00 g/l __ 

$$$$
