
  Mrv0541 02231217252D          

 23 24  0  0  1  0            999 V2000
   -1.4289    0.0000    0.0000 O   0  0  0  0  0  0  0  0  0  0  0  0
   -0.7145   -0.4125    0.0000 C   0  0  0  0  0  0  0  0  0  0  0  0
   -0.7145   -1.2375    0.0000 C   0  0  2  0  0  0  0  0  0  0  0  0
   -1.4289   -1.6500    0.0000 N   0  0  0  0  0  0  0  0  0  0  0  0
   -1.4289   -2.4750    0.0000 C   0  0  2  0  0  0  0  0  0  0  0  0
   -2.1434   -2.8875    0.0000 O   0  0  0  0  0  0  0  0  0  0  0  0
   -0.7145   -2.8875    0.0000 C   0  0  1  0  0  0  0  0  0  0  0  0
   -0.7145   -3.7125    0.0000 O   0  0  0  0  0  0  0  0  0  0  0  0
    0.0000   -2.4750    0.0000 C   0  0  2  0  0  0  0  0  0  0  0  0
    0.7145   -2.8875    0.0000 O   0  0  0  0  0  0  0  0  0  0  0  0
    0.0000   -1.6500    0.0000 C   0  0  2  0  0  0  0  0  0  0  0  0
    0.7145   -1.2375    0.0000 O   0  0  0  0  0  0  0  0  0  0  0  0
    0.7145   -0.4125    0.0000 C   0  0  1  0  0  0  0  0  0  0  0  0
    0.0000    0.0000    0.0000 O   0  0  0  0  0  0  0  0  0  0  0  0
    0.0000    0.8250    0.0000 C   0  0  1  0  0  0  0  0  0  0  0  0
   -0.7145    1.2375    0.0000 C   0  0  0  0  0  0  0  0  0  0  0  0
   -1.4289    0.8250    0.0000 O   0  0  0  0  0  0  0  0  0  0  0  0
    0.7145    1.2375    0.0000 C   0  0  2  0  0  0  0  0  0  0  0  0
    0.7145    2.0625    0.0000 O   0  0  0  0  0  0  0  0  0  0  0  0
    1.4289    0.8250    0.0000 C   0  0  1  0  0  0  0  0  0  0  0  0
    2.1434    1.2375    0.0000 O   0  0  0  0  0  0  0  0  0  0  0  0
    1.4289    0.0000    0.0000 C   0  0  2  0  0  0  0  0  0  0  0  0
    2.1434   -0.4125    0.0000 O   0  0  0  0  0  0  0  0  0  0  0  0
  1  2  1  0  0  0  0
  3  2  1  1  0  0  0
  3  4  1  0  0  0  0
  4  5  1  0  0  0  0
  5  6  1  1  0  0  0
  5  7  1  0  0  0  0
  7  8  1  6  0  0  0
  7  9  1  0  0  0  0
  9 10  1  1  0  0  0
  9 11  1  0  0  0  0
  3 11  1  0  0  0  0
 11 12  1  1  0  0  0
 13 12  1  1  0  0  0
 13 14  1  0  0  0  0
 14 15  1  0  0  0  0
 15 16  1  1  0  0  0
 16 17  1  0  0  0  0
 15 18  1  0  0  0  0
 18 19  1  6  0  0  0
 18 20  1  0  0  0  0
 20 21  1  1  0  0  0
 20 22  1  0  0  0  0
 13 22  1  0  0  0  0
 22 23  1  6  0  0  0
M  END
> <DRUGBANK_ID>
DB04096

> <DRUG_GROUPS>
experimental

> <GENERIC_NAME>
5-Amino-5-Deoxy-Cellobiono-1,5-Lactam

> <CHEMICAL_FORMULA>
C12H23NO10

> <MOLECULAR_WEIGHT>
341.3117

> <EXACT_MASS>
341.132195961

> <IUPAC_NAME>
(2R,3S,4S,5R,6S)-6-(hydroxymethyl)-5-{[(2S,3S,4R,5R,6S)-3,4,5-trihydroxy-6-(hydroxymethyl)oxan-2-yl]oxy}piperidine-2,3,4-triol

> <IUPAC_TRADITIONAL_NAME>
(2R,3S,4S,5R,6S)-6-(hydroxymethyl)-5-{[(2S,3S,4R,5R,6S)-3,4,5-trihydroxy-6-(hydroxymethyl)oxan-2-yl]oxy}piperidine-2,3,4-triol

> <INCHI_IDENTIFIER>
InChI=1S/C12H23NO10/c14-1-3-10(7(18)8(19)11(21)13-3)23-12-9(20)6(17)5(16)4(2-15)22-12/h3-21H,1-2H2/t3-,4-,5-,6+,7-,8-,9-,10+,11+,12+/m0/s1

> <INCHI_KEY>
InChIKey=ABKILQNIPWRUHO-IHLXQJDHSA-N

> <SMILES>
OC[C@@H]1N[C@H](O)[C@@H](O)[C@H](O)[C@@H]1O[C@H]1O[C@@H](CO)[C@H](O)[C@@H](O)[C@@H]1O

> <JCHEM_ACCEPTOR_COUNT>
11

> <JCHEM_DONOR_COUNT>
9

> <JCHEM_ACIDIC_PKA>
11.98

> <JCHEM_BASIC_PKA>
7.03

> <JCHEM_PHYSIOLOGICAL_CHARGE>
1

> <ALOGPS_LOGP>
-2.9

> <JCHEM_LOGP>
-5

> <ALOGPS_LOGS>
0.03

> <JCHEM_POLARIZABILITY>
31.89

> <JCHEM_POLAR_SURFACE_AREA>
192.33

> <JCHEM_REFRACTIVITY>
70.02

> <JCHEM_ROTATABLE_BOND_COUNT>
4

> <ALOGPS_SOLUBILITY>
3.66e+02 g/l __ 

$$$$
