
  Mrv0541 02231217272D          

 37 41  0  0  1  0            999 V2000
    6.8104    0.9185    0.0000 C   0  0  0  0  0  0  0  0  0  0  0  0
    6.5282    0.1433    0.0000 C   0  0  0  0  0  0  0  0  0  0  0  0
    5.7158    0.0000    0.0000 C   0  0  1  0  0  0  0  0  0  0  0  0
    5.9979   -0.7752    0.0000 O   0  0  0  0  0  0  0  0  0  0  0  0
    5.7158    0.8250    0.0000 C   0  0  0  0  0  0  0  0  0  0  0  0
    5.0013    1.2375    0.0000 C   0  0  2  0  0  0  0  0  0  0  0  0
    5.0013    2.0625    0.0000 O   0  0  0  0  0  0  0  0  0  0  0  0
    5.7158    2.4750    0.0000 C   0  0  2  0  0  0  0  0  0  0  0  0
    5.7158    3.3000    0.0000 C   0  0  0  0  0  0  0  0  0  0  0  0
    6.4302    3.7125    0.0000 C   0  0  1  0  0  0  0  0  0  0  0  0
    7.1447    3.3000    0.0000 C   0  0  1  0  0  0  0  0  0  0  0  0
    7.8592    3.7125    0.0000 O   0  0  0  0  0  0  0  0  0  0  0  0
    7.1447    2.4750    0.0000 C   0  0  2  0  0  0  0  0  0  0  0  0
    7.8592    2.0625    0.0000 C   0  0  0  0  0  0  0  0  0  0  0  0
    6.4302    2.0625    0.0000 O   0  0  0  0  0  0  0  0  0  0  0  0
    6.4302    4.5375    0.0000 N   0  0  0  0  0  0  0  0  0  0  0  0
    7.1447    4.9500    0.0000 C   0  0  0  0  0  0  0  0  0  0  0  0
    5.7158    4.9500    0.0000 C   0  0  0  0  0  0  0  0  0  0  0  0
    4.2868    0.8250    0.0000 C   0  0  0  0  0  0  0  0  0  0  0  0
    3.5724    1.2375    0.0000 C   0  0  0  0  0  0  0  0  0  0  0  0
    3.5724    2.0625    0.0000 O   0  0  0  0  0  0  0  0  0  0  0  0
    2.8579    0.8250    0.0000 C   0  0  0  0  0  0  0  0  0  0  0  0
    2.8579    0.0000    0.0000 C   0  0  0  0  0  0  0  0  0  0  0  0
    3.5724   -0.4125    0.0000 C   0  0  0  0  0  0  0  0  0  0  0  0
    4.2868    0.0000    0.0000 C   0  0  0  0  0  0  0  0  0  0  0  0
    5.0013   -0.4125    0.0000 C   0  0  0  0  0  0  0  0  0  0  0  0
    2.1434   -0.4125    0.0000 C   0  0  0  0  0  0  0  0  0  0  0  0
    2.1434   -1.2375    0.0000 O   0  0  0  0  0  0  0  0  0  0  0  0
    1.4289    0.0000    0.0000 C   0  0  0  0  0  0  0  0  0  0  0  0
    0.7145   -0.4125    0.0000 C   0  0  0  0  0  0  0  0  0  0  0  0
    0.0000    0.0000    0.0000 C   0  0  0  0  0  0  0  0  0  0  0  0
    0.0000    0.8250    0.0000 C   0  0  0  0  0  0  0  0  0  0  0  0
    0.7145    1.2375    0.0000 C   0  0  0  0  0  0  0  0  0  0  0  0
    0.7145    2.0625    0.0000 O   0  0  0  0  0  0  0  0  0  0  0  0
    1.4289    0.8250    0.0000 C   0  0  0  0  0  0  0  0  0  0  0  0
    2.1434    1.2375    0.0000 C   0  0  0  0  0  0  0  0  0  0  0  0
    2.1434    2.0625    0.0000 O   0  0  0  0  0  0  0  0  0  0  0  0
  1  2  1  0  0  0  0
  3  2  1  6  0  0  0
  3  4  1  1  0  0  0
  3  5  1  0  0  0  0
  5  6  1  0  0  0  0
  6  7  1  1  0  0  0
  8  7  1  6  0  0  0
  8  9  1  0  0  0  0
  9 10  1  0  0  0  0
 10 11  1  0  0  0  0
 11 12  1  1  0  0  0
 11 13  1  0  0  0  0
 13 14  1  6  0  0  0
 13 15  1  0  0  0  0
  8 15  1  0  0  0  0
 10 16  1  6  0  0  0
 16 17  1  0  0  0  0
 16 18  1  0  0  0  0
  6 19  1  0  0  0  0
 19 20  2  0  0  0  0
 20 21  1  0  0  0  0
 20 22  1  0  0  0  0
 22 23  2  0  0  0  0
 23 24  1  0  0  0  0
 24 25  2  0  0  0  0
 19 25  1  0  0  0  0
 25 26  1  0  0  0  0
  3 26  1  0  0  0  0
 23 27  1  0  0  0  0
 27 28  2  0  0  0  0
 27 29  1  0  0  0  0
 29 30  2  0  0  0  0
 30 31  1  0  0  0  0
 31 32  2  0  0  0  0
 32 33  1  0  0  0  0
 33 34  1  0  0  0  0
 33 35  2  0  0  0  0
 29 35  1  0  0  0  0
 35 36  1  0  0  0  0
 22 36  1  0  0  0  0
 36 37  2  0  0  0  0
M  END
> <DRUGBANK_ID>
DB04131

> <DRUG_GROUPS>
experimental

> <GENERIC_NAME>
10-(4-Dimethylamino-5-Hydroxy-6-Methyl-Tetrahydro-Pyran-2-Yloxy)-8-Ethyl-1,8,11-Trihydroxy-7,8,9,10-Tetrahydro-Naphthacene-5,12-Dione

> <CHEMICAL_FORMULA>
C28H33NO8

> <MOLECULAR_WEIGHT>
511.5635

> <EXACT_MASS>
511.220617037

> <IUPAC_NAME>
(8S,10S)-10-{[(2S,4S,5R,6S)-4-(dimethylamino)-5-hydroxy-6-methyloxan-2-yl]oxy}-8-ethyl-1,8,11-trihydroxy-5,7,8,9,10,12-hexahydrotetracene-5,12-dione

> <IUPAC_TRADITIONAL_NAME>
(8S,10S)-10-{[(2S,4S,5R,6S)-4-(dimethylamino)-5-hydroxy-6-methyloxan-2-yl]oxy}-8-ethyl-1,8,11-trihydroxy-9,10-dihydro-7H-tetracene-5,12-dione

> <INCHI_IDENTIFIER>
InChI=1S/C28H33NO8/c1-5-28(35)11-14-9-16-23(27(34)22-15(25(16)32)7-6-8-18(22)30)26(33)21(14)19(12-28)37-20-10-17(29(3)4)24(31)13(2)36-20/h6-9,13,17,19-20,24,30-31,33,35H,5,10-12H2,1-4H3/t13-,17-,19-,20+,24-,28-/m0/s1

> <INCHI_KEY>
InChIKey=BLGDWFJQIHBUJY-KZCXHDHUSA-N

> <SMILES>
CC[C@@]1(O)C[C@H](O[C@@H]2C[C@@H]([C@@H](O)[C@H](C)O2)N(C)C)C2=C(O)C3=C(C=C2C1)C(=O)C1=CC=CC(O)=C1C3=O

> <JCHEM_ACCEPTOR_COUNT>
9

> <JCHEM_DONOR_COUNT>
4

> <JCHEM_ACIDIC_PKA>
8.95

> <JCHEM_BASIC_PKA>
8.26

> <JCHEM_PHYSIOLOGICAL_CHARGE>
1

> <ALOGPS_LOGP>
2.7

> <JCHEM_LOGP>
3.54

> <ALOGPS_LOGS>
-3.3

> <JCHEM_POLARIZABILITY>
54.09

> <JCHEM_POLAR_SURFACE_AREA>
136.76

> <JCHEM_REFRACTIVITY>
135.98

> <JCHEM_ROTATABLE_BOND_COUNT>
4

> <ALOGPS_SOLUBILITY>
2.44e-01 g/l __ 

$$$$
