
  Mrv0541 02231217252D          

  6  5  0  0  0  0            999 V2000
    2.4750   -1.4289    0.0000 C   0  0  0  0  0  0  0  0  0  0  0  0
    2.0625   -0.7145    0.0000 C   0  0  0  0  0  0  0  0  0  0  0  0
    2.4750    0.0000    0.0000 O   0  0  0  0  0  0  0  0  0  0  0  0
    1.2375   -0.7145    0.0000 C   0  0  0  0  0  0  0  0  0  0  0  0
    0.8250    0.0000    0.0000 C   0  0  0  0  0  0  0  0  0  0  0  0
    0.0000    0.0000    0.0000 O   0  0  0  0  0  0  0  0  0  0  0  0
  1  2  1  0  0  0  0
  2  3  2  0  0  0  0
  2  4  1  0  0  0  0
  4  5  1  0  0  0  0
  5  6  1  0  0  0  0
M  END
> <DRUGBANK_ID>
DB04094

> <DRUG_GROUPS>
experimental

> <GENERIC_NAME>
4-Hydroxy-2-Butanone

> <CHEMICAL_FORMULA>
C4H8O2

> <MOLECULAR_WEIGHT>
88.1051

> <EXACT_MASS>
88.0524295

> <IUPAC_NAME>
4-hydroxybutan-2-one

> <IUPAC_TRADITIONAL_NAME>
4-hydroxy-2-butanone

> <INCHI_IDENTIFIER>
InChI=1S/C4H8O2/c1-4(6)2-3-5/h5H,2-3H2,1H3

> <INCHI_KEY>
InChIKey=LVSQXDHWDCMMRJ-UHFFFAOYSA-N

> <SMILES>
CC(=O)CCO

> <JCHEM_ACCEPTOR_COUNT>
2

> <JCHEM_DONOR_COUNT>
1

> <JCHEM_ACIDIC_PKA>
15.8

> <JCHEM_BASIC_PKA>
-2.4

> <JCHEM_PHYSIOLOGICAL_CHARGE>
0

> <ALOGPS_LOGP>
-0.85

> <JCHEM_LOGP>
-0.47

> <ALOGPS_LOGS>
0.86

> <JCHEM_POLARIZABILITY>
9.21

> <JCHEM_POLAR_SURFACE_AREA>
37.3

> <JCHEM_REFRACTIVITY>
22.6

> <JCHEM_ROTATABLE_BOND_COUNT>
2

> <ALOGPS_SOLUBILITY>
6.32e+02 g/l __ 

$$$$
