
  Mrv0541 02231217382D          

 44 51  0  0  1  0            999 V2000
    0.9165   -1.6394    0.0000 C    0  0  0  0  0  0  0  0  0  0  0  0
    0.8839   -0.8150    0.0000 C    0  0  0  0  0  0  0  0  0  0  0  0
    1.5815   -0.3746    0.0000 C    0  0  0  0  0  0  0  0  0  0  0  0
    1.6353    0.4486    0.0000 C    0  0  0  0  0  0  0  0  0  0  0  0
    1.0008    0.9760    0.0000 C    0  0  0  0  0  0  0  0  0  0  0  0
    2.4348    0.6519    0.0000 C    0  0  0  0  0  0  0  0  0  0  0  0
    2.9554    1.5893    0.0000 C    0  0  0  0  0  0  0  0  0  0  0  0
    3.6697    2.0020    0.0000 C    0  0  0  0  0  0  0  0  0  0  0  0
    3.9753    2.7684    0.0000 C    0  0  0  0  0  0  0  0  0  0  0  0
    3.5348    3.4660    0.0000 C    0  0  0  0  0  0  0  0  0  0  0  0
    4.7985    2.7146    0.0000 C    0  0  0  0  0  0  0  0  0  0  0  0
    5.3259    3.3490    0.0000 C    0  0  0  0  0  0  0  0  0  0  0  0
    5.0401    4.1230    0.0000 C    0  0  0  0  0  0  0  0  0  0  0  0
    5.5675    4.7574    0.0000 C    0  0  0  0  0  0  0  0  0  0  0  0
    5.2818    5.5313    0.0000 O    0  0  0  0  0  0  0  0  0  0  0  0
    6.3806    4.6179    0.0000 O    0  0  0  0  0  0  0  0  0  0  0  0
    5.0018    1.9151    0.0000 C    0  0  0  0  0  0  0  0  0  0  0  0
    4.3042    1.4746    0.0000 N    0  3  0  0  0  0  0  0  0  0  0  0
    4.3499    0.0000    0.0000 Fe   0  1  2  0  0  0  0  0  0  0  0  0
    5.8245    0.0457    0.0000 N    0  5  0  0  0  0  0  0  0  0  0  0
    6.2649   -0.6519    0.0000 C    0  0  0  0  0  0  0  0  0  0  0  0
    5.7444   -1.5893    0.0000 C    0  0  0  0  0  0  0  0  0  0  0  0
    5.0300   -2.0020    0.0000 C    0  0  0  0  0  0  0  0  0  0  0  0
    4.3956   -1.4746    0.0000 N    0  3  0  0  0  0  0  0  0  0  0  0
    3.6980   -1.9151    0.0000 C    0  0  0  0  0  0  0  0  0  0  0  0
    2.7605   -1.3945    0.0000 C    0  0  0  0  0  0  0  0  0  0  0  0
    2.3479   -0.6802    0.0000 C    0  0  0  0  0  0  0  0  0  0  0  0
    2.8752   -0.0457    0.0000 N    0  5  0  0  0  0  0  0  0  0  0  0
    3.9013   -2.7146    0.0000 C    0  0  2  0  0  0  0  0  0  0  0  0
    3.0848   -2.8332    0.0000 C    0  0  0  0  0  0  0  0  0  0  0  0
    3.9339   -3.5390    0.0000 C    0  0  0  0  0  0  0  0  0  0  0  0
    4.6641   -3.9229    0.0000 C    0  0  0  0  0  0  0  0  0  0  0  0
    4.7245   -2.7684    0.0000 C    0  0  0  0  0  0  0  0  0  0  0  0
    5.1649   -3.4660    0.0000 O    0  0  0  0  0  0  0  0  0  0  0  0
    7.0645   -0.4486    0.0000 C    0  0  0  0  0  0  0  0  0  0  0  0
    7.6989   -0.9760    0.0000 C    0  0  0  0  0  0  0  0  0  0  0  0
    7.1183    0.3746    0.0000 C    0  0  0  0  0  0  0  0  0  0  0  0
    7.8159    0.8150    0.0000 C    0  0  0  0  0  0  0  0  0  0  0  0
    7.7833    1.6394    0.0000 C    0  0  0  0  0  0  0  0  0  0  0  0
    7.0531    2.0233    0.0000 C    0  0  0  0  0  0  0  0  0  0  0  0
    6.3554    1.5829    0.0000 O    0  0  0  0  0  0  0  0  0  0  0  0
    7.0205    2.8477    0.0000 O    0  0  0  0  0  0  0  0  0  0  0  0
    6.3519    0.6802    0.0000 C    0  0  0  0  0  0  0  0  0  0  0  0
    5.9392    1.3945    0.0000 C    0  0  0  0  0  0  0  0  0  0  0  0
  1  2  1  0  0  0  0
  2  3  1  0  0  0  0
  3  4  4  0  0  0  0
  4  5  1  0  0  0  0
  4  6  4  0  0  0  0
  6  7  1  0  0  0  0
  7  8  2  0  0  0  0
  8  9  1  0  0  0  0
  9 10  1  0  0  0  0
  9 11  2  0  0  0  0
 11 12  1  0  0  0  0
 12 13  1  0  0  0  0
 13 14  1  0  0  0  0
 14 15  1  0  0  0  0
 14 16  2  0  0  0  0
 11 17  1  0  0  0  0
 17 18  2  0  0  0  0
  8 18  1  0  0  0  0
 19 18  1  6  0  0  0
 19 20  1  0  0  0  0
 20 21  1  0  0  0  0
 21 22  2  0  0  0  0
 22 23  1  0  0  0  0
 23 24  2  0  0  0  0
 19 24  1  0  0  0  0
 24 25  1  0  0  0  0
 25 26  2  0  0  0  0
 26 27  1  0  0  0  0
  3 27  4  0  0  0  0
 27 28  4  0  0  0  0
  6 28  4  0  0  0  0
 19 28  1  0  0  0  0
 25 29  1  0  0  0  0
 29 30  1  6  0  0  0
 29 31  1  1  0  0  0
 31 32  1  0  0  0  0
 29 33  1  0  0  0  0
 23 33  1  0  0  0  0
 33 34  2  0  0  0  0
 21 35  1  0  0  0  0
 35 36  1  0  0  0  0
 35 37  2  0  0  0  0
 37 38  1  0  0  0  0
 38 39  1  0  0  0  0
 39 40  1  0  0  0  0
 40 41  1  0  0  0  0
 40 42  2  0  0  0  0
 37 43  1  0  0  0  0
 20 43  1  0  0  0  0
 43 44  2  0  0  0  0
 17 44  1  0  0  0  0
M  END
> <DRUGBANK_ID>
DB04384

> <DRUG_GROUPS>
experimental

> <GENERIC_NAME>
Fe-Mesopone

> <SYNONYMS>


> <CHEMICAL_FORMULA>
C34H36FeN4O5

> <MOLECULAR_WEIGHT>
636.518

> <EXACT_MASS>
636.203512415

> <INCHI_IDENTIFIER>
InChI=1S/C34H36N4O5.Fe/c1-7-20-17(3)23-13-24-18(4)21(9-11-31(39)40)26(35-24)15-27-22(10-12-32(41)42)19(5)25(36-27)14-29-33(43)34(6,8-2)30(38-29)16-28(20)37-23;/h13-16H,7-12H2,1-6H3,(H,39,40)(H,41,42);/q-1;+4/b23-13-,24-13-,25-14-,26-15-,27-15-,28-16-,29-14-,30-16-;/t34-;/m0./s1

> <INCHI_KEY>
InChIKey=RGZSVPLUDSXBEC-GNLNAXQSSA-N

> <SMILES>
CCc1c(C)c2C=C3C(C)=C(CCC(O)=O)C4=[N+]3[Fe@+3]35[N-]6C(=CC7=[N+]3C(=Cc1[n-]25)[C@](C)(CC)C7=O)C(C)=C(CCC(O)=O)C6=C4

> <JCHEM_ACCEPTOR_COUNT>
0

> <JCHEM_DONOR_COUNT>
0

> <JCHEM_PHYSIOLOGICAL_CHARGE>
3

> <JCHEM_POLARIZABILITY>
71.56

> <JCHEM_POLAR_SURFACE_AREA>
107.19

> <JCHEM_REFRACTIVITY>
170.09

> <JCHEM_ROTATABLE_BOND_COUNT>
8 __ 

$$$$
