
  Mrv0541 02231217502D          

 40 41  0  0  1  0            999 V2000
   -0.7145   -2.8875    0.0000 C   0  0  0  0  0  0  0  0  0  0  0  0
    0.0000   -3.3000    0.0000 C   0  0  0  0  0  0  0  0  0  0  0  0
    0.7145   -2.8875    0.0000 O   0  0  0  0  0  0  0  0  0  0  0  0
    1.4289   -3.3000    0.0000 C   0  0  0  0  0  0  0  0  0  0  0  0
    1.4289   -4.1250    0.0000 O   0  0  0  0  0  0  0  0  0  0  0  0
    2.1434   -2.8875    0.0000 C   0  0  0  0  0  0  0  0  0  0  0  0
    2.1434   -2.0625    0.0000 C   0  0  0  0  0  0  0  0  0  0  0  0
    2.8579   -1.6500    0.0000 C   0  0  1  0  0  0  0  0  0  0  0  0
    2.8579   -0.8250    0.0000 C   0  0  0  0  0  0  0  0  0  0  0  0
    2.1434   -0.4125    0.0000 C   0  0  2  0  0  0  0  0  0  0  0  0
    2.0572    0.4080    0.0000 C   0  0  0  0  0  0  0  0  0  0  0  0
    1.2502    0.5795    0.0000 C   0  0  0  0  0  0  0  0  0  0  0  0
    0.8377   -0.1350    0.0000 N   0  0  0  0  0  0  0  0  0  0  0  0
    1.3897   -0.7481    0.0000 C   0  0  0  0  0  0  0  0  0  0  0  0
    1.2182   -1.5550    0.0000 O   0  0  0  0  0  0  0  0  0  0  0  0
    3.5724   -2.0625    0.0000 N   0  0  0  0  0  0  0  0  0  0  0  0
    4.2868   -1.6500    0.0000 C   0  0  0  0  0  0  0  0  0  0  0  0
    4.2868   -0.8250    0.0000 O   0  0  0  0  0  0  0  0  0  0  0  0
    5.0013   -2.0625    0.0000 C   0  0  1  0  0  0  0  0  0  0  0  0
    5.7158   -1.6500    0.0000 N   0  0  0  0  0  0  0  0  0  0  0  0
    6.4302   -2.0625    0.0000 C   0  0  0  0  0  0  0  0  0  0  0  0
    6.4302   -2.8875    0.0000 O   0  0  0  0  0  0  0  0  0  0  0  0
    7.1447   -1.6500    0.0000 C   0  0  1  0  0  0  0  0  0  0  0  0
    7.8592   -2.0625    0.0000 N   0  0  0  0  0  0  0  0  0  0  0  0
    8.5737   -1.6500    0.0000 C   0  0  0  0  0  0  0  0  0  0  0  0
    8.5737   -0.8250    0.0000 O   0  0  0  0  0  0  0  0  0  0  0  0
    9.2881   -2.0625    0.0000 O   0  0  0  0  0  0  0  0  0  0  0  0
   10.0026   -1.6500    0.0000 C   0  0  0  0  0  0  0  0  0  0  0  0
   10.7171   -1.2375    0.0000 C   0  0  0  0  0  0  0  0  0  0  0  0
   10.4151   -2.3645    0.0000 C   0  0  0  0  0  0  0  0  0  0  0  0
    9.5901   -0.9355    0.0000 C   0  0  0  0  0  0  0  0  0  0  0  0
    7.1447   -0.8250    0.0000 C   0  0  0  0  0  0  0  0  0  0  0  0
    7.8592   -0.4125    0.0000 C   0  0  0  0  0  0  0  0  0  0  0  0
    6.4302   -0.4125    0.0000 C   0  0  0  0  0  0  0  0  0  0  0  0
    5.0013   -2.8875    0.0000 C   0  0  0  0  0  0  0  0  0  0  0  0
    5.7158   -3.3000    0.0000 C   0  0  0  0  0  0  0  0  0  0  0  0
    5.7158   -4.1250    0.0000 C   0  0  0  0  0  0  0  0  0  0  0  0
    5.0013   -4.5375    0.0000 C   0  0  0  0  0  0  0  0  0  0  0  0
    4.2868   -4.1250    0.0000 C   0  0  0  0  0  0  0  0  0  0  0  0
    4.2868   -3.3000    0.0000 C   0  0  0  0  0  0  0  0  0  0  0  0
  1  2  1  0  0  0  0
  2  3  1  0  0  0  0
  3  4  1  0  0  0  0
  4  5  2  0  0  0  0
  4  6  1  0  0  0  0
  6  7  2  0  0  0  0
  7  8  1  0  0  0  0
  8  9  1  0  0  0  0
 10  9  1  1  0  0  0
 10 11  1  0  0  0  0
 11 12  1  0  0  0  0
 12 13  1  0  0  0  0
 13 14  1  0  0  0  0
 10 14  1  0  0  0  0
 14 15  2  0  0  0  0
  8 16  1  1  0  0  0
 16 17  1  0  0  0  0
 17 18  2  0  0  0  0
 17 19  1  0  0  0  0
 19 20  1  1  0  0  0
 20 21  1  0  0  0  0
 21 22  2  0  0  0  0
 21 23  1  0  0  0  0
 23 24  1  6  0  0  0
 24 25  1  0  0  0  0
 25 26  2  0  0  0  0
 25 27  1  0  0  0  0
 27 28  1  0  0  0  0
 28 29  1  0  0  0  0
 28 30  1  0  0  0  0
 28 31  1  0  0  0  0
 23 32  1  0  0  0  0
 32 33  1  0  0  0  0
 32 34  1  0  0  0  0
 19 35  1  0  0  0  0
 35 36  2  0  0  0  0
 36 37  1  0  0  0  0
 37 38  2  0  0  0  0
 38 39  1  0  0  0  0
 39 40  2  0  0  0  0
 35 40  1  0  0  0  0
M  END
> <DRUGBANK_ID>
DB04692

> <DRUG_GROUPS>
experimental

> <GENERIC_NAME>
(E)-(S)-4-[(S)-2-((S)-2-TERT-BUTOXYCARBONYLAMINO-3-METHYL-BUTYRYLAMINO)-2-PHENYL-ACETYLAMINO]-5-(2-OXO-PYRROLIDIN-3-YL)-PENT-2-ENOIC ACID ETHYL ESTER

> <CHEMICAL_FORMULA>
C29H42N4O7

> <MOLECULAR_WEIGHT>
558.6664

> <EXACT_MASS>
558.305349718

> <IUPAC_NAME>
ethyl (2E,4R)-4-[(2S)-2-[(2S)-2-{[(tert-butoxy)carbonyl]amino}-3-methylbutanamido]-2-phenylacetamido]-5-[(3S)-2-oxopyrrolidin-3-yl]pent-2-enoate

> <IUPAC_TRADITIONAL_NAME>
ethyl (2E,4R)-4-[(2S)-2-[(2S)-2-[(tert-butoxycarbonyl)amino]-3-methylbutanamido]-2-phenylacetamido]-5-[(3S)-2-oxopyrrolidin-3-yl]pent-2-enoate

> <INCHI_IDENTIFIER>
InChI=1S/C29H42N4O7/c1-7-39-22(34)14-13-21(17-20-15-16-30-25(20)35)31-27(37)24(19-11-9-8-10-12-19)32-26(36)23(18(2)3)33-28(38)40-29(4,5)6/h8-14,18,20-21,23-24H,7,15-17H2,1-6H3,(H,30,35)(H,31,37)(H,32,36)(H,33,38)/b14-13+/t20-,21-,23-,24-/m0/s1

> <INCHI_KEY>
InChIKey=NUDVEHBHDBJSMD-AKNJTNLOSA-N

> <SMILES>
CCOC(=O)\C=C\[C@@H](C[C@@H]1CCNC1=O)NC(=O)[C@@H](NC(=O)[C@H](C(C)C)NC(=O)OC(C)(C)C)C1=CC=CC=C1

> <JCHEM_ACCEPTOR_COUNT>
5

> <JCHEM_DONOR_COUNT>
4

> <JCHEM_ACIDIC_PKA>
12.06

> <JCHEM_BASIC_PKA>
-0.56

> <JCHEM_PHYSIOLOGICAL_CHARGE>
0

> <ALOGPS_LOGP>
2.04

> <JCHEM_LOGP>
2.49

> <ALOGPS_LOGS>
-4.9

> <JCHEM_POLARIZABILITY>
60.08

> <JCHEM_POLAR_SURFACE_AREA>
151.93

> <JCHEM_REFRACTIVITY>
149.01

> <JCHEM_ROTATABLE_BOND_COUNT>
15

> <ALOGPS_SOLUBILITY>
7.19e-03 g/l __ 

$$$$
