IPE
  Mrv0541 02231217512D          

 14 13  0  0  0  0            999 V2000
    1.1926    0.1259    0.0000 C   0  0  0  0  0  0  0  0  0  0  0  0
    0.4780   -0.2866    0.0000 O   0  0  0  0  0  0  0  0  0  0  0  0
    1.9070   -0.2866    0.0000 C   0  0  0  0  0  0  0  0  0  0  0  0
    2.6216    0.1259    0.0000 C   0  0  0  0  0  0  0  0  0  0  0  0
    3.3361   -0.2866    0.0000 C   0  0  0  0  0  0  0  0  0  0  0  0
    2.6216    0.9510    0.0000 C   0  0  0  0  0  0  0  0  0  0  0  0
   -0.2365    0.1259    0.0000 P   0  0  1  0  0  0  0  0  0  0  0  0
    0.1760    0.8404    0.0000 O   0  0  0  0  0  0  0  0  0  0  0  0
   -0.6490   -0.5886    0.0000 O   0  0  0  0  0  0  0  0  0  0  0  0
   -0.9511    0.5384    0.0000 O   0  0  0  0  0  0  0  0  0  0  0  0
   -1.6655    0.1259    0.0000 P   0  0  0  0  0  0  0  0  0  0  0  0
   -2.3801   -0.2866    0.0000 O   0  0  0  0  0  0  0  0  0  0  0  0
   -2.0781    0.8404    0.0000 O   0  0  0  0  0  0  0  0  0  0  0  0
   -1.2530   -0.5886    0.0000 O   0  0  0  0  0  0  0  0  0  0  0  0
  1  2  1  0  0  0  0
  1  3  1  0  0  0  0
  7  2  1  1  0  0  0
  3  4  1  0  0  0  0
  4  5  2  0  0  0  0
  4  6  1  0  0  0  0
  7  8  2  0  0  0  0
  7  9  1  6  0  0  0
  7 10  1  0  0  0  0
 10 11  1  0  0  0  0
 11 12  1  0  0  0  0
 11 13  2  0  0  0  0
 11 14  1  0  0  0  0
M  END
> <DRUGBANK_ID>
DB04714

> <DRUG_GROUPS>
experimental

> <GENERIC_NAME>
ISOPENTENYL PYROPHOSPHATE

> <CHEMICAL_FORMULA>
C5H12O7P2

> <MOLECULAR_WEIGHT>
246.0921

> <EXACT_MASS>
246.005825762

> <IUPAC_NAME>
({hydroxy[(3-methylbut-3-en-1-yl)oxy]phosphoryl}oxy)phosphonic acid

> <IUPAC_TRADITIONAL_NAME>
[hydroxy(3-methylbut-3-en-1-yl)oxyphosphoryl]oxyphosphonic acid

> <INCHI_IDENTIFIER>
InChI=1S/C5H12O7P2/c1-5(2)3-4-11-14(9,10)12-13(6,7)8/h1,3-4H2,2H3,(H,9,10)(H2,6,7,8)

> <INCHI_KEY>
InChIKey=NUHSROFQTUXZQQ-UHFFFAOYSA-N

> <SMILES>
CC(=C)CCO[P@](O)(=O)OP(O)(O)=O

> <JCHEM_ACCEPTOR_COUNT>
5

> <JCHEM_DONOR_COUNT>
3

> <JCHEM_ACIDIC_PKA>
1.78

> <JCHEM_PHYSIOLOGICAL_CHARGE>
-2

> <ALOGPS_LOGP>
0.04

> <JCHEM_LOGP>
0.2

> <ALOGPS_LOGS>
-1.6

> <JCHEM_POLARIZABILITY>
19.01

> <JCHEM_POLAR_SURFACE_AREA>
113.29

> <JCHEM_REFRACTIVITY>
48.21

> <JCHEM_ROTATABLE_BOND_COUNT>
6

> <ALOGPS_SOLUBILITY>
6.69e+00 g/l __ 

$$$$
