
  Mrv0541 02231217322D          

 11 10  0  0  0  0            999 V2000
   -0.4050   -2.6781    0.0000 N   0  0  0  0  0  0  0  0  0  0  0  0
    0.1784   -2.0947    0.0000 C   0  0  0  0  0  0  0  0  0  0  0  0
    0.7618   -2.6781    0.0000 C   0  0  0  0  0  0  0  0  0  0  0  0
    0.5482   -3.4750    0.0000 C   0  0  0  0  0  0  0  0  0  0  0  0
    1.1316   -4.0583    0.0000 O   0  0  0  0  0  0  0  0  0  0  0  0
   -0.4050   -1.5114    0.0000 C   0  0  0  0  0  0  0  0  0  0  0  0
   -0.1914   -0.7145    0.0000 C   0  0  0  0  0  0  0  0  0  0  0  0
   -0.7748   -0.1311    0.0000 O   0  0  0  0  0  0  0  0  0  0  0  0
    0.7618   -1.5114    0.0000 C   0  0  0  0  0  0  0  0  0  0  0  0
    0.5482   -0.7145    0.0000 C   0  0  0  0  0  0  0  0  0  0  0  0
    1.1316   -0.1311    0.0000 O   0  0  0  0  0  0  0  0  0  0  0  0
  1  2  1  0  0  0  0
  2  3  1  0  0  0  0
  3  4  1  0  0  0  0
  4  5  1  0  0  0  0
  2  6  1  0  0  0  0
  6  7  1  0  0  0  0
  7  8  1  0  0  0  0
  2  9  1  0  0  0  0
  9 10  1  0  0  0  0
 10 11  1  0  0  0  0
M  END
> <DRUGBANK_ID>
DB04237

> <DRUG_GROUPS>
experimental

> <GENERIC_NAME>
Tris(Hydroxyethyl)Aminomethane

> <CHEMICAL_FORMULA>
C7H17NO3

> <MOLECULAR_WEIGHT>
163.2148

> <EXACT_MASS>
163.120843415

> <IUPAC_NAME>
3-amino-3-(2-hydroxyethyl)pentane-1,5-diol

> <IUPAC_TRADITIONAL_NAME>
3-amino-3-(2-hydroxyethyl)pentane-1,5-diol

> <INCHI_IDENTIFIER>
InChI=1S/C7H17NO3/c8-7(1-4-9,2-5-10)3-6-11/h9-11H,1-6,8H2

> <INCHI_KEY>
InChIKey=GKODZWOPPOTFGA-UHFFFAOYSA-N

> <SMILES>
NC(CCO)(CCO)CCO

> <JCHEM_ACCEPTOR_COUNT>
4

> <JCHEM_DONOR_COUNT>
4

> <JCHEM_ACIDIC_PKA>
15.44

> <JCHEM_BASIC_PKA>
9.63

> <JCHEM_PHYSIOLOGICAL_CHARGE>
1

> <ALOGPS_LOGP>
-1.6

> <JCHEM_LOGP>
-2.5

> <ALOGPS_LOGS>
0.25

> <JCHEM_POLARIZABILITY>
17.91

> <JCHEM_POLAR_SURFACE_AREA>
86.71

> <JCHEM_REFRACTIVITY>
42.95

> <JCHEM_ROTATABLE_BOND_COUNT>
6

> <ALOGPS_SOLUBILITY>
2.91e+02 g/l __ 

$$$$
