
  Mrv0541 02231217402D          

 44 47  0  0  1  0            999 V2000
    1.3106   -7.8321    0.0000 C   0  0  0  0  0  0  0  0  0  0  0  0
    2.0676   -7.5042    0.0000 N   0  0  0  0  0  0  0  0  0  0  0  0
    2.1623   -6.6847    0.0000 C   0  0  0  0  0  0  0  0  0  0  0  0
    2.9193   -6.3569    0.0000 C   0  0  0  0  0  0  0  0  0  0  0  0
    3.5818   -6.8486    0.0000 N   0  0  0  0  0  0  0  0  0  0  0  0
    3.4872   -7.6681    0.0000 C   0  0  0  0  0  0  0  0  0  0  0  0
    2.7301   -7.9960    0.0000 C   0  0  0  0  0  0  0  0  0  0  0  0
    4.3389   -6.5208    0.0000 C   0  0  0  0  0  0  0  0  0  0  0  0
    4.4335   -5.7012    0.0000 O   0  0  0  0  0  0  0  0  0  0  0  0
    5.0013   -7.0125    0.0000 N   0  0  0  0  0  0  0  0  0  0  0  0
    5.7584   -6.6847    0.0000 C   0  0  2  0  0  0  0  0  0  0  0  0
    5.8530   -5.8651    0.0000 C   0  0  0  0  0  0  0  0  0  0  0  0
    6.6101   -5.5373    0.0000 C   0  0  0  0  0  0  0  0  0  0  0  0
    6.7047   -4.7177    0.0000 C   0  0  0  0  0  0  0  0  0  0  0  0
    7.4618   -4.3899    0.0000 C   0  0  0  0  0  0  0  0  0  0  0  0
    8.1242   -4.8817    0.0000 C   0  0  0  0  0  0  0  0  0  0  0  0
    8.0296   -5.7012    0.0000 C   0  0  0  0  0  0  0  0  0  0  0  0
    7.2725   -6.0290    0.0000 C   0  0  0  0  0  0  0  0  0  0  0  0
    6.4208   -7.1764    0.0000 C   0  0  0  0  0  0  0  0  0  0  0  0
    6.3262   -7.9960    0.0000 O   0  0  0  0  0  0  0  0  0  0  0  0
    7.1779   -6.8486    0.0000 N   0  0  0  0  0  0  0  0  0  0  0  0
    7.8403   -7.3403    0.0000 C   0  0  2  0  0  0  0  0  0  0  0  0
    7.7457   -8.1599    0.0000 C   0  0  0  0  0  0  0  0  0  0  0  0
    8.4081   -8.6516    0.0000 C   0  0  0  0  0  0  0  0  0  0  0  0
    8.3135   -9.4712    0.0000 C   0  0  0  0  0  0  0  0  0  0  0  0
    8.9759   -9.9629    0.0000 C   0  0  0  0  0  0  0  0  0  0  0  0
    8.8813  -10.7825    0.0000 C   0  0  0  0  0  0  0  0  0  0  0  0
    8.1242  -11.1103    0.0000 C   0  0  0  0  0  0  0  0  0  0  0  0
    7.4618  -10.6185    0.0000 C   0  0  0  0  0  0  0  0  0  0  0  0
    7.5564   -9.7990    0.0000 C   0  0  0  0  0  0  0  0  0  0  0  0
    8.5974   -7.0125    0.0000 C   0  0  0  0  0  0  0  0  0  0  0  0
    9.2598   -7.5042    0.0000 C   0  0  0  0  0  0  0  0  0  0  0  0
   10.0169   -7.1764    0.0000 S   0  0  0  0  0  0  0  0  0  0  0  0
   10.3447   -7.9335    0.0000 O   0  0  0  0  0  0  0  0  0  0  0  0
    9.6891   -6.4193    0.0000 O   0  0  0  0  0  0  0  0  0  0  0  0
   10.7740   -6.8486    0.0000 N   0  0  0  0  0  0  0  0  0  0  0  0
   11.4364   -7.3403    0.0000 O   0  0  0  0  0  0  0  0  0  0  0  0
   12.1935   -7.0125    0.0000 C   0  0  0  0  0  0  0  0  0  0  0  0
   12.8559   -7.5042    0.0000 C   0  0  0  0  0  0  0  0  0  0  0  0
   13.6130   -7.1764    0.0000 C   0  0  0  0  0  0  0  0  0  0  0  0
   14.2754   -7.6681    0.0000 C   0  0  0  0  0  0  0  0  0  0  0  0
   14.1808   -8.4877    0.0000 C   0  0  0  0  0  0  0  0  0  0  0  0
   13.4237   -8.8155    0.0000 C   0  0  0  0  0  0  0  0  0  0  0  0
   12.7613   -8.3238    0.0000 C   0  0  0  0  0  0  0  0  0  0  0  0
  1  2  1  0  0  0  0
  2  3  1  0  0  0  0
  3  4  1  0  0  0  0
  4  5  1  0  0  0  0
  5  6  1  0  0  0  0
  6  7  1  0  0  0  0
  2  7  1  0  0  0  0
  5  8  1  0  0  0  0
  8  9  2  0  0  0  0
  8 10  1  0  0  0  0
 11 10  1  6  0  0  0
 11 12  1  0  0  0  0
 12 13  1  0  0  0  0
 13 14  2  0  0  0  0
 14 15  1  0  0  0  0
 15 16  2  0  0  0  0
 16 17  1  0  0  0  0
 17 18  2  0  0  0  0
 13 18  1  0  0  0  0
 11 19  1  0  0  0  0
 19 20  2  0  0  0  0
 19 21  1  0  0  0  0
 22 21  1  1  0  0  0
 22 23  1  0  0  0  0
 23 24  1  0  0  0  0
 24 25  1  0  0  0  0
 25 26  2  0  0  0  0
 26 27  1  0  0  0  0
 27 28  2  0  0  0  0
 28 29  1  0  0  0  0
 29 30  2  0  0  0  0
 25 30  1  0  0  0  0
 22 31  1  0  0  0  0
 31 32  1  0  0  0  0
 32 33  1  0  0  0  0
 33 34  2  0  0  0  0
 33 35  2  0  0  0  0
 33 36  1  0  0  0  0
 36 37  1  0  0  0  0
 37 38  1  0  0  0  0
 38 39  1  0  0  0  0
 39 40  2  0  0  0  0
 40 41  1  0  0  0  0
 41 42  2  0  0  0  0
 42 43  1  0  0  0  0
 43 44  2  0  0  0  0
 39 44  1  0  0  0  0
M  END
> <DRUGBANK_ID>
DB04427

> <DRUG_GROUPS>
experimental

> <GENERIC_NAME>
3-[[N-[4-Methyl-Piperazinyl]Carbonyl]-Phenylalaninyl-Amino]-5-Phenyl-Pentane-1-Sulfonic Acid Benzyloxy-Amide

> <CHEMICAL_FORMULA>
C33H43N5O5S

> <MOLECULAR_WEIGHT>
621.79

> <EXACT_MASS>
621.298490201

> <IUPAC_NAME>
(2R)-N-[(3R)-1-[(benzyloxy)sulfamoyl]-5-phenylpentan-3-yl]-2-{[(4-methylpiperazin-1-yl)carbonyl]amino}-3-phenylpropanamide

> <IUPAC_TRADITIONAL_NAME>
(2R)-N-[(3R)-1-(benzyloxysulfamoyl)-5-phenylpentan-3-yl]-2-[(4-methylpiperazin-1-yl)carbonylamino]-3-phenylpropanamide

> <INCHI_IDENTIFIER>
InChI=1S/C33H43N5O5S/c1-37-20-22-38(23-21-37)33(40)35-31(25-28-13-7-3-8-14-28)32(39)34-30(18-17-27-11-5-2-6-12-27)19-24-44(41,42)36-43-26-29-15-9-4-10-16-29/h2-16,30-31,36H,17-26H2,1H3,(H,34,39)(H,35,40)/t30-,31-/m1/s1

> <INCHI_KEY>
InChIKey=PPIYQXGSPPWVLJ-FIRIVFDPSA-N

> <SMILES>
CN1CCN(CC1)C(=O)N[C@H](CC1=CC=CC=C1)C(=O)N[C@H](CCC1=CC=CC=C1)CCS(=O)(=O)NOCC1=CC=CC=C1

> <JCHEM_ACCEPTOR_COUNT>
6

> <JCHEM_DONOR_COUNT>
3

> <JCHEM_ACIDIC_PKA>
10.09

> <JCHEM_BASIC_PKA>
7.02

> <JCHEM_PHYSIOLOGICAL_CHARGE>
1

> <ALOGPS_LOGP>
3.51

> <JCHEM_LOGP>
3.4

> <ALOGPS_LOGS>
-4.9

> <JCHEM_POLARIZABILITY>
66.73

> <JCHEM_POLAR_SURFACE_AREA>
120.08

> <JCHEM_REFRACTIVITY>
171.38

> <JCHEM_ROTATABLE_BOND_COUNT>
14

> <ALOGPS_SOLUBILITY>
8.00e-03 g/l __ 

$$$$
