
  Mrv0541 02231218032D          

 22 24  0  0  0  0            999 V2000
    4.6910    4.6811    0.0000 Cl   0  0  0  0  0  0  0  0  0  0  0  0
    2.3645   -0.5560    0.0000 N    0  0  0  0  0  0  0  0  0  0  0  0
    2.3645   -2.2060    0.0000 N    0  0  0  0  0  0  0  0  0  0  0  0
    3.7935    2.7441    0.0000 N    0  0  0  0  0  0  0  0  0  0  0  0
    1.6500   -3.4435    0.0000 N    0  0  0  0  0  0  0  0  0  0  0  0
    3.0791   -3.4435    0.0000 N    0  0  0  0  0  0  0  0  0  0  0  0
    3.1261    3.2290    0.0000 N    0  0  0  0  0  0  0  0  0  0  0  0
    3.0791   -0.9685    0.0000 C    0  0  0  0  0  0  0  0  0  0  0  0
    1.6500   -0.9685    0.0000 C    0  0  0  0  0  0  0  0  0  0  0  0
    2.3645    0.2690    0.0000 C    0  0  0  0  0  0  0  0  0  0  0  0
    3.0791   -1.7935    0.0000 C    0  0  0  0  0  0  0  0  0  0  0  0
    1.6500   -1.7935    0.0000 C    0  0  0  0  0  0  0  0  0  0  0  0
    3.0791    0.6815    0.0000 C    0  0  0  0  0  0  0  0  0  0  0  0
    3.0791    1.5066    0.0000 C    0  0  0  0  0  0  0  0  0  0  0  0
    3.7935    1.9191    0.0000 C    0  0  0  0  0  0  0  0  0  0  0  0
    2.3645   -3.0310    0.0000 C    0  0  0  0  0  0  0  0  0  0  0  0
    4.4610    3.2290    0.0000 C    0  0  0  0  0  0  0  0  0  0  0  0
    1.6500   -4.2686    0.0000 C    0  0  0  0  0  0  0  0  0  0  0  0
    3.0791   -4.2686    0.0000 C    0  0  0  0  0  0  0  0  0  0  0  0
    4.2060    4.0136    0.0000 C    0  0  0  0  0  0  0  0  0  0  0  0
    3.3810    4.0136    0.0000 C    0  0  0  0  0  0  0  0  0  0  0  0
    2.3645   -4.6811    0.0000 C    0  0  0  0  0  0  0  0  0  0  0  0
  1 20  1  0  0  0  0
  2  8  1  0  0  0  0
  2  9  1  0  0  0  0
  2 10  1  0  0  0  0
  3 11  1  0  0  0  0
  3 12  1  0  0  0  0
  3 16  1  0  0  0  0
  4  7  1  0  0  0  0
  4 15  1  0  0  0  0
  4 17  1  0  0  0  0
  5 16  1  0  0  0  0
  5 18  2  0  0  0  0
  6 16  2  0  0  0  0
  6 19  1  0  0  0  0
  7 21  2  0  0  0  0
  8 11  1  0  0  0  0
  9 12  1  0  0  0  0
 10 13  1  0  0  0  0
 13 14  1  0  0  0  0
 14 15  1  0  0  0  0
 17 20  2  0  0  0  0
 18 22  1  0  0  0  0
 19 22  2  0  0  0  0
 20 21  1  0  0  0  0
M  END
> <DRUGBANK_ID>
DB04970

> <DRUG_GROUPS>
investigational

> <GENERIC_NAME>
Lesopitron

> <SYNONYMS>


> <CHEMICAL_FORMULA>
C15H21ClN6

> <MOLECULAR_WEIGHT>
320.82

> <EXACT_MASS>
320.151622409

> <IUPAC_NAME>
2-{4-[4-(4-chloro-1H-pyrazol-1-yl)butyl]piperazin-1-yl}pyrimidine

> <IUPAC_TRADITIONAL_NAME>
lesopitron

> <INCHI_IDENTIFIER>
InChI=1S/C15H21ClN6/c16-14-12-19-22(13-14)7-2-1-6-20-8-10-21(11-9-20)15-17-4-3-5-18-15/h3-5,12-13H,1-2,6-11H2

> <INCHI_KEY>
InChIKey=AHCPKWJUALHOPH-UHFFFAOYSA-N

> <SMILES>
ClC1=CN(CCCCN2CCN(CC2)C2=NC=CC=N2)N=C1

> <JCHEM_ACCEPTOR_COUNT>
5

> <JCHEM_DONOR_COUNT>
0

> <JCHEM_BASIC_PKA>
7.75

> <JCHEM_PHYSIOLOGICAL_CHARGE>
1

> <ALOGPS_LOGP>
2.64

> <JCHEM_LOGP>
2.09

> <ALOGPS_LOGS>
-2.4

> <JCHEM_POLARIZABILITY>
34.97

> <JCHEM_POLAR_SURFACE_AREA>
50.08

> <JCHEM_REFRACTIVITY>
100.45

> <JCHEM_ROTATABLE_BOND_COUNT>
6

> <ALOGPS_SOLUBILITY>
1.25e+00 g/l __ 

$$$$
