
  Mrv0541 02231217452D          

 28 30  0  0  1  0            999 V2000
   -0.1663    8.8675    0.0000 N    0  0  0  0  0  0  0  0  0  0  0  0
    0.3857    8.2544    0.0000 C    0  0  0  0  0  0  0  0  0  0  0  0
    1.1927    8.4260    0.0000 N    0  0  0  0  0  0  0  0  0  0  0  0
    1.7447    7.8129    0.0000 C    0  0  0  0  0  0  0  0  0  0  0  0
    1.4898    7.0282    0.0000 N    0  0  0  0  0  0  0  0  0  0  0  0
    0.6828    6.8567    0.0000 C    0  0  0  0  0  0  0  0  0  0  0  0
    0.1308    7.4698    0.0000 C    0  0  0  0  0  0  0  0  0  0  0  0
   -0.6229    7.1343    0.0000 N    0  0  0  0  0  0  0  0  0  0  0  0
   -0.5366    6.3138    0.0000 C    0  0  0  0  0  0  0  0  0  0  0  0
   -1.1497    5.7617    0.0000 Br   0  0  0  0  0  0  0  0  0  0  0  0
    0.2703    6.1422    0.0000 N    0  0  0  0  0  0  0  0  0  0  0  0
    0.6059    5.3886    0.0000 C    0  0  2  0  0  0  0  0  0  0  0  0
    1.4129    5.2170    0.0000 O    0  0  0  0  0  0  0  0  0  0  0  0
    1.4991    4.3966    0.0000 C    0  0  1  0  0  0  0  0  0  0  0  0
    2.2136    3.9841    0.0000 C    0  0  0  0  0  0  0  0  0  0  0  0
    2.9280    4.3966    0.0000 O    0  0  0  0  0  0  0  0  0  0  0  0
    3.6425    3.9841    0.0000 P    0  0  2  0  0  0  0  0  0  0  0  0
    3.2300    3.2696    0.0000 O    0  0  0  0  0  0  0  0  0  0  0  0
    4.0550    4.6985    0.0000 O    0  0  0  0  0  0  0  0  0  0  0  0
    4.3570    3.5716    0.0000 O    0  0  0  0  0  0  0  0  0  0  0  0
    5.0714    3.9841    0.0000 P    0  0  0  0  0  0  0  0  0  0  0  0
    5.7859    4.3966    0.0000 O    0  0  0  0  0  0  0  0  0  0  0  0
    5.4839    3.2696    0.0000 O    0  0  0  0  0  0  0  0  0  0  0  0
    4.6589    4.6985    0.0000 O    0  0  0  0  0  0  0  0  0  0  0  0
    0.7454    4.0610    0.0000 C    0  0  2  0  0  0  0  0  0  0  0  0
    0.5739    3.2540    0.0000 O    0  0  0  0  0  0  0  0  0  0  0  0
    0.1934    4.6741    0.0000 C    0  0  1  0  0  0  0  0  0  0  0  0
   -0.6271    4.5879    0.0000 O    0  0  0  0  0  0  0  0  0  0  0  0
  1  2  1  0  0  0  0
  2  3  2  0  0  0  0
  3  4  1  0  0  0  0
  4  5  2  0  0  0  0
  5  6  1  0  0  0  0
  6  7  2  0  0  0  0
  2  7  1  0  0  0  0
  7  8  1  0  0  0  0
  8  9  2  0  0  0  0
  9 10  1  0  0  0  0
  9 11  1  0  0  0  0
  6 11  1  0  0  0  0
 12 11  1  6  0  0  0
 12 13  1  0  0  0  0
 13 14  1  0  0  0  0
 14 15  1  1  0  0  0
 15 16  1  0  0  0  0
 17 16  1  6  0  0  0
 17 18  1  1  0  0  0
 17 19  2  0  0  0  0
 17 20  1  0  0  0  0
 20 21  1  0  0  0  0
 21 22  1  0  0  0  0
 21 23  1  0  0  0  0
 21 24  2  0  0  0  0
 14 25  1  0  0  0  0
 25 26  1  6  0  0  0
 25 27  1  0  0  0  0
 12 27  1  0  0  0  0
 27 28  1  1  0  0  0
M  END
> <DRUGBANK_ID>
DB04554

> <DRUG_GROUPS>
experimental

> <GENERIC_NAME>
8-Bromoadenosine-5'-Diphosphate

> <CHEMICAL_FORMULA>
C10H14BrN5O10P2

> <MOLECULAR_WEIGHT>
506.097

> <EXACT_MASS>
504.939927364

> <IUPAC_NAME>
[({[(2S,3R,4R,5R)-5-(6-amino-8-bromo-9H-purin-9-yl)-3,4-dihydroxyoxolan-2-yl]methoxy}(hydroxy)phosphoryl)oxy]phosphonic acid

> <IUPAC_TRADITIONAL_NAME>
{[(2S,3R,4R,5R)-5-(6-amino-8-bromopurin-9-yl)-3,4-dihydroxyoxolan-2-yl]methoxy(hydroxy)phosphoryl}oxyphosphonic acid

> <INCHI_IDENTIFIER>
InChI=1S/C10H14BrN5O10P2/c11-10-15-4-7(12)13-2-14-8(4)16(10)9-6(18)5(17)3(25-9)1-24-28(22,23)26-27(19,20)21/h2-3,5-6,9,17-18H,1H2,(H,22,23)(H2,12,13,14)(H2,19,20,21)/t3-,5-,6+,9+/m0/s1

> <INCHI_KEY>
InChIKey=KVVVTFSHHQCHNZ-BZKDHIKHSA-N

> <SMILES>
NC1=NC=NC2=C1N=C(Br)N2[C@@H]1O[C@@H](CO[P@](O)(=O)OP(O)(O)=O)[C@H](O)[C@H]1O

> <JCHEM_ACCEPTOR_COUNT>
12

> <JCHEM_DONOR_COUNT>
6

> <JCHEM_ACIDIC_PKA>
1.77

> <JCHEM_BASIC_PKA>
4.07

> <JCHEM_PHYSIOLOGICAL_CHARGE>
-2

> <ALOGPS_LOGP>
-1

> <JCHEM_LOGP>
-3.7

> <ALOGPS_LOGS>
-2.3

> <JCHEM_POLARIZABILITY>
37.46

> <JCHEM_POLAR_SURFACE_AREA>
232.6

> <JCHEM_REFRACTIVITY>
92.57

> <JCHEM_ROTATABLE_BOND_COUNT>
6

> <ALOGPS_SOLUBILITY>
2.76e+00 g/l __ 

$$$$
