
  Mrv0541 02231217372D          

 11 10  0  0  1  0            999 V2000
    4.6184    2.6664    0.0000 N   0  0  0  0  0  0  0  0  0  0  0  0
    4.6184    1.8414    0.0000 C   0  0  1  0  0  0  0  0  0  0  0  0
    3.9039    1.4289    0.0000 C   0  0  0  0  0  0  0  0  0  0  0  0
    3.1895    1.8414    0.0000 S   0  0  0  0  0  0  0  0  0  0  0  0
    2.4750    1.4289    0.0000 C   0  0  0  0  0  0  0  0  0  0  0  0
    1.7605    1.8414    0.0000 C   0  0  0  0  0  0  0  0  0  0  0  0
    1.0461    1.4289    0.0000 O   0  0  0  0  0  0  0  0  0  0  0  0
    1.7605    2.6664    0.0000 O   0  0  0  0  0  0  0  0  0  0  0  0
    5.3329    1.4289    0.0000 C   0  0  0  0  0  0  0  0  0  0  0  0
    6.0474    1.8414    0.0000 O   0  0  0  0  0  0  0  0  0  0  0  0
    5.3329    0.6039    0.0000 O   0  0  0  0  0  0  0  0  0  0  0  0
  2  1  1  6  0  0  0
  2  3  1  0  0  0  0
  3  4  1  0  0  0  0
  4  5  1  0  0  0  0
  5  6  1  0  0  0  0
  6  7  1  0  0  0  0
  6  8  2  0  0  0  0
  2  9  1  0  0  0  0
  9 10  1  0  0  0  0
  9 11  2  0  0  0  0
M  END
> <DRUGBANK_ID>
DB04339

> <DRUG_GROUPS>
experimental

> <GENERIC_NAME>
Carboxymethylenecysteine

> <CHEMICAL_FORMULA>
C5H9NO4S

> <MOLECULAR_WEIGHT>
179.194

> <EXACT_MASS>
179.025228471

> <IUPAC_NAME>
(2R)-2-amino-3-[(carboxymethyl)sulfanyl]propanoic acid

> <IUPAC_TRADITIONAL_NAME>
carboxymethylenecysteine

> <INCHI_IDENTIFIER>
InChI=1S/C5H9NO4S/c6-3(5(9)10)1-11-2-4(7)8/h3H,1-2,6H2,(H,7,8)(H,9,10)/t3-/m0/s1

> <INCHI_KEY>
InChIKey=GBFLZEXEOZUWRN-VKHMYHEASA-N

> <SMILES>
N[C@@H](CSCC(O)=O)C(O)=O

> <JCHEM_ACCEPTOR_COUNT>
5

> <JCHEM_DONOR_COUNT>
3

> <JCHEM_ACIDIC_PKA>
1.84

> <JCHEM_BASIC_PKA>
9.14

> <JCHEM_PHYSIOLOGICAL_CHARGE>
-1

> <ALOGPS_LOGP>
-3.2

> <JCHEM_LOGP>
-3.3

> <ALOGPS_LOGS>
-0.92

> <JCHEM_POLARIZABILITY>
16.69

> <JCHEM_POLAR_SURFACE_AREA>
100.62

> <JCHEM_REFRACTIVITY>
39.11

> <JCHEM_ROTATABLE_BOND_COUNT>
5

> <ALOGPS_SOLUBILITY>
2.16e+01 g/l __ 

$$$$
