
  Mrv0541 02231217332D          

 22 23  0  0  1  0            999 V2000
    0.1067    4.7652    0.0000 C   0  0  0  0  0  0  0  0  0  0  0  0
   -0.6078    4.3527    0.0000 C   0  0  0  0  0  0  0  0  0  0  0  0
   -0.6078    3.5277    0.0000 C   0  0  0  0  0  0  0  0  0  0  0  0
   -1.3222    3.1152    0.0000 N   0  0  0  0  0  0  0  0  0  0  0  0
   -1.3222    2.2902    0.0000 C   0  0  2  0  0  0  0  0  0  0  0  0
   -0.6548    1.8053    0.0000 O   0  0  0  0  0  0  0  0  0  0  0  0
   -0.9097    1.0206    0.0000 C   0  0  1  0  0  0  0  0  0  0  0  0
   -0.4248    0.3532    0.0000 C   0  0  0  0  0  0  0  0  0  0  0  0
   -0.7604   -0.4005    0.0000 O   0  0  0  0  0  0  0  0  0  0  0  0
   -0.2754   -1.0679    0.0000 P   0  0  0  0  0  0  0  0  0  0  0  0
    0.2095   -1.7354    0.0000 O   0  0  0  0  0  0  0  0  0  0  0  0
    0.3920   -0.5830    0.0000 O   0  0  0  0  0  0  0  0  0  0  0  0
   -0.9429   -1.5528    0.0000 O   0  0  0  0  0  0  0  0  0  0  0  0
   -1.7347    1.0206    0.0000 C   0  0  2  0  0  0  0  0  0  0  0  0
   -2.2197    0.3532    0.0000 O   0  0  0  0  0  0  0  0  0  0  0  0
   -1.9897    1.8053    0.0000 C   0  0  1  0  0  0  0  0  0  0  0  0
   -2.7743    2.0602    0.0000 O   0  0  0  0  0  0  0  0  0  0  0  0
   -2.0367    3.5277    0.0000 C   0  0  0  0  0  0  0  0  0  0  0  0
   -2.7512    3.1152    0.0000 O   0  0  0  0  0  0  0  0  0  0  0  0
   -2.0367    4.3527    0.0000 N   0  0  0  0  0  0  0  0  0  0  0  0
   -1.3222    4.7652    0.0000 C   0  0  0  0  0  0  0  0  0  0  0  0
   -1.3222    5.5902    0.0000 O   0  0  0  0  0  0  0  0  0  0  0  0
  1  2  1  0  0  0  0
  2  3  2  0  0  0  0
  3  4  1  0  0  0  0
  5  4  1  6  0  0  0
  5  6  1  0  0  0  0
  6  7  1  0  0  0  0
  7  8  1  1  0  0  0
  8  9  1  0  0  0  0
  9 10  1  0  0  0  0
 10 11  1  0  0  0  0
 10 12  1  0  0  0  0
 10 13  2  0  0  0  0
  7 14  1  0  0  0  0
 14 15  1  6  0  0  0
 14 16  1  0  0  0  0
  5 16  1  0  0  0  0
 16 17  1  1  0  0  0
  4 18  1  0  0  0  0
 18 19  2  0  0  0  0
 18 20  1  0  0  0  0
 20 21  1  0  0  0  0
  2 21  1  0  0  0  0
 21 22  2  0  0  0  0
M  END
> <DRUGBANK_ID>
DB04243

> <DRUG_GROUPS>
experimental

> <GENERIC_NAME>
5-Methyluridine 5'-Monophosphate

> <CHEMICAL_FORMULA>
C10H15N2O9P

> <MOLECULAR_WEIGHT>
338.2079

> <EXACT_MASS>
338.0515166

> <IUPAC_NAME>
{[(2S,3R,4R,5R)-3,4-dihydroxy-5-(5-methyl-2,4-dioxo-1,2,3,4-tetrahydropyrimidin-1-yl)oxolan-2-yl]methoxy}phosphonic acid

> <IUPAC_TRADITIONAL_NAME>
[(2S,3R,4R,5R)-3,4-dihydroxy-5-(5-methyl-2,4-dioxo-3H-pyrimidin-1-yl)oxolan-2-yl]methoxyphosphonic acid

> <INCHI_IDENTIFIER>
InChI=1S/C10H15N2O9P/c1-4-2-12(10(16)11-8(4)15)9-7(14)6(13)5(21-9)3-20-22(17,18)19/h2,5-7,9,13-14H,3H2,1H3,(H,11,15,16)(H2,17,18,19)/t5-,6-,7+,9+/m0/s1

> <INCHI_KEY>
InChIKey=IGWHDMPTQKSDTL-XZMZPDFPSA-N

> <SMILES>
CC1=CN([C@@H]2O[C@@H](COP(O)(O)=O)[C@H](O)[C@H]2O)C(=O)NC1=O

> <JCHEM_ACCEPTOR_COUNT>
8

> <JCHEM_DONOR_COUNT>
5

> <JCHEM_ACIDIC_PKA>
1.23

> <JCHEM_BASIC_PKA>
-3.7

> <JCHEM_PHYSIOLOGICAL_CHARGE>
-2

> <ALOGPS_LOGP>
-1.7

> <JCHEM_LOGP>
-2.1

> <ALOGPS_LOGS>
-1.6

> <JCHEM_POLARIZABILITY>
28.45

> <JCHEM_POLAR_SURFACE_AREA>
165.86

> <JCHEM_REFRACTIVITY>
67.8

> <JCHEM_ROTATABLE_BOND_COUNT>
4

> <ALOGPS_SOLUBILITY>
8.91e+00 g/l __ 

$$$$
