
  Mrv0541 02231217292D          

 49 51  0  0  1  0            999 V2000
   -0.9473   -3.5417    0.0000 C   0  0  0  0  0  0  0  0  0  0  0  0
   -0.9473   -4.3667    0.0000 C   0  0  0  0  0  0  0  0  0  0  0  0
   -1.6617   -4.7792    0.0000 O   0  0  0  0  0  0  0  0  0  0  0  0
   -0.2328   -4.7792    0.0000 N   0  0  0  0  0  0  0  0  0  0  0  0
   -0.2328   -5.6042    0.0000 C   0  0  1  0  0  0  0  0  0  0  0  0
    0.4817   -6.0167    0.0000 C   0  0  1  0  0  0  0  0  0  0  0  0
    0.4817   -6.8417    0.0000 O   0  0  0  0  0  0  0  0  0  0  0  0
   -0.2328   -7.2542    0.0000 C   0  0  2  0  0  0  0  0  0  0  0  0
   -0.2328   -8.0792    0.0000 C   0  0  0  0  0  0  0  0  0  0  0  0
   -0.9473   -8.4917    0.0000 O   0  0  0  0  0  0  0  0  0  0  0  0
   -0.9473   -6.8417    0.0000 C   0  0  2  0  0  0  0  0  0  0  0  0
   -1.6617   -7.2542    0.0000 O   0  0  0  0  0  0  0  0  0  0  0  0
   -0.9473   -6.0167    0.0000 C   0  0  2  0  0  0  0  0  0  0  0  0
   -1.6617   -5.6042    0.0000 O   0  0  0  0  0  0  0  0  0  0  0  0
   -2.3762   -6.0167    0.0000 C   0  0  1  0  0  0  0  0  0  0  0  0
   -3.0907   -6.4292    0.0000 C   0  0  0  0  0  0  0  0  0  0  0  0
   -1.9637   -6.7312    0.0000 O   0  0  0  0  0  0  0  0  0  0  0  0
   -2.3762   -7.4457    0.0000 P   0  0  0  0  0  0  0  0  0  0  0  0
   -1.6617   -7.8582    0.0000 O   0  0  0  0  0  0  0  0  0  0  0  0
   -3.0907   -7.0332    0.0000 O   0  0  0  0  0  0  0  0  0  0  0  0
   -2.7887   -8.1601    0.0000 O   0  0  0  0  0  0  0  0  0  0  0  0
   -2.7887   -5.3022    0.0000 C   0  0  0  0  0  0  0  0  0  0  0  0
   -3.6137   -5.3022    0.0000 O   0  0  0  0  0  0  0  0  0  0  0  0
   -2.3762   -4.5878    0.0000 O   0  0  0  0  0  0  0  0  0  0  0  0
    1.1962   -5.6042    0.0000 O   0  0  0  0  0  0  0  0  0  0  0  0
    1.9106   -6.0167    0.0000 P   0  0  2  0  0  0  0  0  0  0  0  0
    2.3231   -5.3022    0.0000 O   0  0  0  0  0  0  0  0  0  0  0  0
    1.4981   -6.7312    0.0000 O   0  0  0  0  0  0  0  0  0  0  0  0
    2.6251   -6.4292    0.0000 O   0  0  0  0  0  0  0  0  0  0  0  0
    3.3396   -6.0167    0.0000 P   0  0  2  0  0  0  0  0  0  0  0  0
    3.7521   -6.7312    0.0000 O   0  0  0  0  0  0  0  0  0  0  0  0
    2.9271   -5.3022    0.0000 O   0  0  0  0  0  0  0  0  0  0  0  0
    4.0540   -5.6042    0.0000 O   0  0  0  0  0  0  0  0  0  0  0  0
    4.7685   -6.0167    0.0000 C   0  0  0  0  0  0  0  0  0  0  0  0
    5.4830   -5.6042    0.0000 C   0  0  2  0  0  0  0  0  0  0  0  0
    6.2367   -5.9398    0.0000 O   0  0  0  0  0  0  0  0  0  0  0  0
    6.7887   -5.3267    0.0000 C   0  0  2  0  0  0  0  0  0  0  0  0
    6.3762   -4.6122    0.0000 C   0  0  2  0  0  0  0  0  0  0  0  0
    6.7117   -3.8585    0.0000 O   0  0  0  0  0  0  0  0  0  0  0  0
    5.5692   -4.7837    0.0000 C   0  0  1  0  0  0  0  0  0  0  0  0
    4.9561   -4.2317    0.0000 O   0  0  0  0  0  0  0  0  0  0  0  0
    7.6092   -5.4129    0.0000 N   0  0  0  0  0  0  0  0  0  0  0  0
    8.0941   -4.7455    0.0000 C   0  0  0  0  0  0  0  0  0  0  0  0
    8.9146   -4.8317    0.0000 C   0  0  0  0  0  0  0  0  0  0  0  0
    9.2501   -5.5854    0.0000 C   0  0  0  0  0  0  0  0  0  0  0  0
   10.0706   -5.6716    0.0000 O   0  0  0  0  0  0  0  0  0  0  0  0
    8.7652   -6.2528    0.0000 N   0  0  0  0  0  0  0  0  0  0  0  0
    7.9447   -6.1666    0.0000 C   0  0  0  0  0  0  0  0  0  0  0  0
    7.4598   -6.8340    0.0000 O   0  0  0  0  0  0  0  0  0  0  0  0
  1  2  1  0  0  0  0
  2  3  2  0  0  0  0
  2  4  1  0  0  0  0
  5  4  1  1  0  0  0
  5  6  1  0  0  0  0
  6  7  1  0  0  0  0
  7  8  1  0  0  0  0
  8  9  1  6  0  0  0
  9 10  1  0  0  0  0
  8 11  1  0  0  0  0
 11 12  1  6  0  0  0
 11 13  1  0  0  0  0
  5 13  1  0  0  0  0
 13 14  1  6  0  0  0
 15 14  1  6  0  0  0
 15 16  1  6  0  0  0
 15 17  1  0  0  0  0
 17 18  1  0  0  0  0
 18 19  1  0  0  0  0
 18 20  1  0  0  0  0
 18 21  2  0  0  0  0
 15 22  1  0  0  0  0
 22 23  1  0  0  0  0
 22 24  2  0  0  0  0
  6 25  1  6  0  0  0
 26 25  1  1  0  0  0
 26 27  1  6  0  0  0
 26 28  2  0  0  0  0
 26 29  1  0  0  0  0
 30 29  1  6  0  0  0
 30 31  1  1  0  0  0
 30 32  2  0  0  0  0
 30 33  1  0  0  0  0
 33 34  1  0  0  0  0
 35 34  1  1  0  0  0
 35 36  1  0  0  0  0
 36 37  1  0  0  0  0
 37 38  1  0  0  0  0
 38 39  1  1  0  0  0
 38 40  1  0  0  0  0
 35 40  1  0  0  0  0
 40 41  1  6  0  0  0
 37 42  1  6  0  0  0
 42 43  1  0  0  0  0
 43 44  2  0  0  0  0
 44 45  1  0  0  0  0
 45 46  2  0  0  0  0
 45 47  1  0  0  0  0
 47 48  1  0  0  0  0
 42 48  1  0  0  0  0
 48 49  2  0  0  0  0
M  END
> <DRUGBANK_ID>
DB04174

> <DRUG_GROUPS>
experimental

> <GENERIC_NAME>
3'-1-Carboxy-1-Phosphonooxy-Ethoxy-Uridine-Diphosphate-N-Acetylglucosamine

> <CHEMICAL_FORMULA>
C20H32N3O23P3

> <MOLECULAR_WEIGHT>
775.3957

> <EXACT_MASS>
775.063943881

> <IUPAC_NAME>
(2S)-2-{[(2S,3R,4R,5R,6R)-2-({[({[(2S,3R,4R,5R)-5-(2,4-dioxo-1,2,3,4-tetrahydropyrimidin-1-yl)-3,4-dihydroxyoxolan-2-yl]methoxy}(hydroxy)phosphoryl)oxy](hydroxy)phosphoryl}oxy)-3-acetamido-5-hydroxy-6-(hydroxymethyl)oxan-4-yl]oxy}-2-(phosphonooxy)propanoic acid

> <IUPAC_TRADITIONAL_NAME>
(2S)-2-{[(2S,3R,4R,5R,6R)-2-[({[(2S,3R,4R,5R)-5-(2,4-dioxo-3H-pyrimidin-1-yl)-3,4-dihydroxyoxolan-2-yl]methoxy(hydroxy)phosphoryl}oxy(hydroxy)phosphoryl)oxy]-3-acetamido-5-hydroxy-6-(hydroxymethyl)oxan-4-yl]oxy}-2-(phosphonooxy)propanoic acid

> <INCHI_IDENTIFIER>
InChI=1S/C20H32N3O23P3/c1-7(25)21-11-15(43-20(2,18(30)31)45-47(33,34)35)13(28)8(5-24)42-17(11)44-49(38,39)46-48(36,37)40-6-9-12(27)14(29)16(41-9)23-4-3-10(26)22-19(23)32/h3-4,8-9,11-17,24,27-29H,5-6H2,1-2H3,(H,21,25)(H,30,31)(H,36,37)(H,38,39)(H,22,26,32)(H2,33,34,35)/t8-,9+,11-,12+,13+,14-,15-,16-,17+,20+/m1/s1

> <INCHI_KEY>
InChIKey=NLBIPGBVVPCESQ-ZEVJXODCSA-N

> <SMILES>
CC(=O)N[C@H]1[C@H](O[P@](O)(=O)O[P@](O)(=O)OC[C@@H]2O[C@H]([C@H](O)[C@H]2O)N2C=CC(=O)NC2=O)O[C@H](CO)[C@H](O)[C@@H]1O[C@@](C)(OP(O)(O)=O)C(O)=O

> <JCHEM_ACCEPTOR_COUNT>
19

> <JCHEM_DONOR_COUNT>
11

> <JCHEM_ACIDIC_PKA>
0.8

> <JCHEM_BASIC_PKA>
-3.8

> <JCHEM_PHYSIOLOGICAL_CHARGE>
-5

> <ALOGPS_LOGP>
-0.8

> <JCHEM_LOGP>
-5.1

> <ALOGPS_LOGS>
-1.8

> <JCHEM_POLARIZABILITY>
61.95

> <JCHEM_POLAR_SURFACE_AREA>
393.47

> <JCHEM_REFRACTIVITY>
145.47

> <JCHEM_ROTATABLE_BOND_COUNT>
15

> <ALOGPS_SOLUBILITY>
1.36e+01 g/l __ 

$$$$
