
  Mrv0541 02231217232D          

 24 25  0  0  1  0            999 V2000
   -1.1962   -6.4292    0.0000 O   0  0  0  0  0  0  0  0  0  0  0  0
   -0.4817   -6.0167    0.0000 P   0  0  0  0  0  0  0  0  0  0  0  0
   -0.0692   -6.7312    0.0000 O   0  0  0  0  0  0  0  0  0  0  0  0
   -0.8942   -5.3022    0.0000 O   0  0  0  0  0  0  0  0  0  0  0  0
    0.2328   -5.6042    0.0000 O   0  0  0  0  0  0  0  0  0  0  0  0
    0.9473   -6.0167    0.0000 P   0  0  1  0  0  0  0  0  0  0  0  0
    0.5348   -6.7312    0.0000 O   0  0  0  0  0  0  0  0  0  0  0  0
    1.3598   -5.3022    0.0000 O   0  0  0  0  0  0  0  0  0  0  0  0
    1.6617   -6.4292    0.0000 O   0  0  0  0  0  0  0  0  0  0  0  0
    2.3762   -6.0167    0.0000 C   0  0  0  0  0  0  0  0  0  0  0  0
    3.0907   -6.4292    0.0000 C   0  0  1  0  0  0  0  0  0  0  0  0
    3.8443   -6.0937    0.0000 O   0  0  0  0  0  0  0  0  0  0  0  0
    4.3964   -6.7067    0.0000 C   0  0  1  0  0  0  0  0  0  0  0  0
    3.9839   -7.4212    0.0000 C   0  0  0  0  0  0  0  0  0  0  0  0
    3.1769   -7.2497    0.0000 C   0  0  2  0  0  0  0  0  0  0  0  0
    2.5638   -7.8017    0.0000 F   0  0  0  0  0  0  0  0  0  0  0  0
    5.2169   -6.6205    0.0000 N   0  0  0  0  0  0  0  0  0  0  0  0
    5.5524   -5.8668    0.0000 C   0  0  0  0  0  0  0  0  0  0  0  0
    6.3729   -5.7806    0.0000 C   0  0  0  0  0  0  0  0  0  0  0  0
    6.8578   -6.4480    0.0000 C   0  0  0  0  0  0  0  0  0  0  0  0
    7.6783   -6.3618    0.0000 O   0  0  0  0  0  0  0  0  0  0  0  0
    6.5223   -7.2017    0.0000 N   0  0  0  0  0  0  0  0  0  0  0  0
    5.7018   -7.2880    0.0000 C   0  0  0  0  0  0  0  0  0  0  0  0
    5.3662   -8.0416    0.0000 O   0  0  0  0  0  0  0  0  0  0  0  0
  1  2  1  0  0  0  0
  2  3  1  0  0  0  0
  2  4  2  0  0  0  0
  2  5  1  0  0  0  0
  6  5  1  1  0  0  0
  6  7  1  6  0  0  0
  6  8  2  0  0  0  0
  6  9  1  0  0  0  0
  9 10  1  0  0  0  0
 11 10  1  1  0  0  0
 11 12  1  0  0  0  0
 12 13  1  0  0  0  0
 13 14  1  0  0  0  0
 14 15  1  0  0  0  0
 11 15  1  0  0  0  0
 15 16  1  6  0  0  0
 13 17  1  6  0  0  0
 17 18  1  0  0  0  0
 18 19  2  0  0  0  0
 19 20  1  0  0  0  0
 20 21  2  0  0  0  0
 20 22  1  0  0  0  0
 22 23  1  0  0  0  0
 17 23  1  0  0  0  0
 23 24  2  0  0  0  0
M  END
> <DRUGBANK_ID>
DB04068

> <DRUG_GROUPS>
experimental

> <GENERIC_NAME>
Fudp

> <CHEMICAL_FORMULA>
C9H13FN2O10P2

> <MOLECULAR_WEIGHT>
390.1528

> <EXACT_MASS>
390.002945875

> <IUPAC_NAME>
[({[(2R,3S,5S)-5-(2,4-dioxo-1,2,3,4-tetrahydropyrimidin-1-yl)-3-fluorooxolan-2-yl]methoxy}(hydroxy)phosphoryl)oxy]phosphonic acid

> <IUPAC_TRADITIONAL_NAME>
{[(2R,3S,5S)-5-(2,4-dioxo-3H-pyrimidin-1-yl)-3-fluorooxolan-2-yl]methoxy(hydroxy)phosphoryl}oxyphosphonic acid

> <INCHI_IDENTIFIER>
InChI=1S/C9H13FN2O10P2/c10-5-3-8(12-2-1-7(13)11-9(12)14)21-6(5)4-20-24(18,19)22-23(15,16)17/h1-2,5-6,8H,3-4H2,(H,18,19)(H,11,13,14)(H2,15,16,17)/t5-,6+,8-/m0/s1

> <INCHI_KEY>
InChIKey=WLQBZMZTRNPUDL-BBVRLYRLSA-N

> <SMILES>
OP(O)(=O)O[P@@](O)(=O)OC[C@H]1O[C@@H](C[C@@H]1F)N1C=CC(=O)NC1=O

> <JCHEM_ACCEPTOR_COUNT>
8

> <JCHEM_DONOR_COUNT>
4

> <JCHEM_ACIDIC_PKA>
1.77

> <JCHEM_BASIC_PKA>
-4.3

> <JCHEM_PHYSIOLOGICAL_CHARGE>
-2

> <ALOGPS_LOGP>
-0.4

> <JCHEM_LOGP>
-1.2

> <ALOGPS_LOGS>
-1.7

> <JCHEM_POLARIZABILITY>
29.85

> <JCHEM_POLAR_SURFACE_AREA>
171.93

> <JCHEM_REFRACTIVITY>
71.11

> <JCHEM_ROTATABLE_BOND_COUNT>
6

> <ALOGPS_SOLUBILITY>
8.13e+00 g/l __ 

$$$$
