PU0
  Mrv0541 02231217232D          

 26 28  0  0  0  0            999 V2000
    0.6116    2.0466    0.0000 C   0  0  0  0  0  0  0  0  0  0  0  0
   -1.0384    2.0466    0.0000 C   0  0  0  0  0  0  0  0  0  0  0  0
    0.1991    1.3321    0.0000 O   0  0  0  0  0  0  0  0  0  0  0  0
   -0.6259    1.3321    0.0000 C   0  0  0  0  0  0  0  0  0  0  0  0
   -1.8634    2.0466    0.0000 C   0  0  0  0  0  0  0  0  0  0  0  0
   -2.2759    1.3321    0.0000 C   0  0  0  0  0  0  0  0  0  0  0  0
   -3.1009    1.3321    0.0000 O   0  0  0  0  0  0  0  0  0  0  0  0
   -3.5134    2.0466    0.0000 C   0  0  0  0  0  0  0  0  0  0  0  0
   -1.8634    0.6176    0.0000 C   0  0  0  0  0  0  0  0  0  0  0  0
   -1.0384    0.6176    0.0000 C   0  0  0  0  0  0  0  0  0  0  0  0
   -0.6259   -0.0968    0.0000 C   0  0  0  0  0  0  0  0  0  0  0  0
    0.1991   -0.0968    0.0000 C   0  0  0  0  0  0  0  0  0  0  0  0
    0.6841    0.5706    0.0000 N   0  0  0  0  0  0  0  0  0  0  0  0
    1.4687    0.3157    0.0000 C   0  0  0  0  0  0  0  0  0  0  0  0
    2.1831    0.7282    0.0000 C   0  0  0  0  0  0  0  0  0  0  0  0
    2.1831    1.5532    0.0000 N   0  0  0  0  0  0  0  0  0  0  0  0
    1.4687   -0.5093    0.0000 C   0  0  0  0  0  0  0  0  0  0  0  0
    2.1831   -0.9218    0.0000 N   0  0  0  0  0  0  0  0  0  0  0  0
    2.8976   -0.5093    0.0000 C   0  0  0  0  0  0  0  0  0  0  0  0
    2.8976    0.3157    0.0000 N   0  0  0  0  0  0  0  0  0  0  0  0
    0.6841   -0.7643    0.0000 N   0  0  0  0  0  0  0  0  0  0  0  0
    0.4291   -1.5489    0.0000 C   0  0  0  0  0  0  0  0  0  0  0  0
    0.9811   -2.1620    0.0000 C   0  0  0  0  0  0  0  0  0  0  0  0
    0.7262   -2.9466    0.0000 C   0  0  0  0  0  0  0  0  0  0  0  0
    1.2782   -3.5597    0.0000 C   0  0  0  0  0  0  0  0  0  0  0  0
    3.6121   -0.9218    0.0000 F   0  0  0  0  0  0  0  0  0  0  0  0
  1  3  1  0  0  0  0
  2  4  1  0  0  0  0
  2  5  2  0  0  0  0
  3  4  1  0  0  0  0
  4 10  2  0  0  0  0
  5  6  1  0  0  0  0
  6  7  1  0  0  0  0
  6  9  2  0  0  0  0
  7  8  1  0  0  0  0
  9 10  1  0  0  0  0
 10 11  1  0  0  0  0
 11 12  1  0  0  0  0
 12 13  2  0  0  0  0
 12 21  1  0  0  0  0
 13 14  1  0  0  0  0
 14 15  2  0  0  0  0
 14 17  1  0  0  0  0
 15 16  1  0  0  0  0
 15 20  1  0  0  0  0
 17 18  2  0  0  0  0
 17 21  1  0  0  0  0
 18 19  1  0  0  0  0
 19 20  2  0  0  0  0
 19 26  1  0  0  0  0
 21 22  1  0  0  0  0
 22 23  1  0  0  0  0
 23 24  1  0  0  0  0
 24 25  1  0  0  0  0
M  END
> <DRUGBANK_ID>
DB04054

> <DRUG_GROUPS>
experimental

> <GENERIC_NAME>
9-Butyl-8-(2,5-Dimethoxy-Benzyl)-2-Fluoro-9h-Purin-6-Ylamine

> <CHEMICAL_FORMULA>
C18H22FN5O2

> <MOLECULAR_WEIGHT>
359.398

> <EXACT_MASS>
359.175753178

> <IUPAC_NAME>
9-butyl-8-[(2,5-dimethoxyphenyl)methyl]-2-fluoro-9H-purin-6-amine

> <IUPAC_TRADITIONAL_NAME>
9-butyl-8-[(2,5-dimethoxyphenyl)methyl]-2-fluoropurin-6-amine

> <INCHI_IDENTIFIER>
InChI=1S/C18H22FN5O2/c1-4-5-8-24-14(21-15-16(20)22-18(19)23-17(15)24)10-11-9-12(25-2)6-7-13(11)26-3/h6-7,9H,4-5,8,10H2,1-3H3,(H2,20,22,23)

> <INCHI_KEY>
InChIKey=PASRTKOWXJDFFV-UHFFFAOYSA-N

> <SMILES>
CCCCN1C(CC2=C(OC)C=CC(OC)=C2)=NC2=C(N)N=C(F)N=C12

> <JCHEM_ACCEPTOR_COUNT>
6

> <JCHEM_DONOR_COUNT>
1

> <JCHEM_ACIDIC_PKA>
17.67

> <JCHEM_BASIC_PKA>
0.97

> <JCHEM_PHYSIOLOGICAL_CHARGE>
0

> <ALOGPS_LOGP>
3.66

> <JCHEM_LOGP>
3.28

> <ALOGPS_LOGS>
-4

> <JCHEM_POLARIZABILITY>
37.19

> <JCHEM_POLAR_SURFACE_AREA>
88.08

> <JCHEM_REFRACTIVITY>
98.32

> <JCHEM_ROTATABLE_BOND_COUNT>
7

> <ALOGPS_SOLUBILITY>
3.83e-02 g/l __ 

$$$$
