
  Mrv0541 02231217272D          

  9  9  0  0  1  0            999 V2000
    2.1434    1.2375    0.0000 O   0  0  0  0  0  0  0  0  0  0  0  0
    1.4289    0.8250    0.0000 C   0  0  1  0  0  0  0  0  0  0  0  0
    1.4289    0.0000    0.0000 N   0  0  0  0  0  0  0  0  0  0  0  0
    0.7145   -0.4125    0.0000 C   0  0  0  0  0  0  0  0  0  0  0  0
    0.7145   -1.2375    0.0000 O   0  0  0  0  0  0  0  0  0  0  0  0
    0.0000    0.0000    0.0000 N   0  0  0  0  0  0  0  0  0  0  0  0
    0.0000    0.8250    0.0000 C   0  0  0  0  0  0  0  0  0  0  0  0
    0.7145    1.2375    0.0000 C   0  0  0  0  0  0  0  0  0  0  0  0
    0.7145    2.0625    0.0000 F   0  0  0  0  0  0  0  0  0  0  0  0
  2  1  1  1  0  0  0
  2  3  1  0  0  0  0
  3  4  1  0  0  0  0
  4  5  2  0  0  0  0
  4  6  1  0  0  0  0
  6  7  1  0  0  0  0
  7  8  2  0  0  0  0
  2  8  1  0  0  0  0
  8  9  1  0  0  0  0
M  END
> <DRUGBANK_ID>
DB04135

> <DRUG_GROUPS>
experimental

> <GENERIC_NAME>
5-Fluoro-4-(S)-Hydroxy-3,4-Dihydropyrimidine

> <CHEMICAL_FORMULA>
C4H5FN2O2

> <MOLECULAR_WEIGHT>
132.0931

> <EXACT_MASS>
132.033505619

> <IUPAC_NAME>
(4R)-5-fluoro-4-hydroxy-1,2,3,4-tetrahydropyrimidin-2-one

> <IUPAC_TRADITIONAL_NAME>
(4R)-5-fluoro-4-hydroxy-3,4-dihydro-1H-pyrimidin-2-one

> <INCHI_IDENTIFIER>
InChI=1S/C4H5FN2O2/c5-2-1-6-4(9)7-3(2)8/h1,3,8H,(H2,6,7,9)/t3-/m1/s1

> <INCHI_KEY>
InChIKey=PRVUBDAKZJCBTI-GSVOUGTGSA-N

> <SMILES>
O[C@H]1NC(=O)NC=C1F

> <JCHEM_ACCEPTOR_COUNT>
2

> <JCHEM_DONOR_COUNT>
3

> <JCHEM_ACIDIC_PKA>
9.25

> <JCHEM_BASIC_PKA>
-4.1

> <JCHEM_PHYSIOLOGICAL_CHARGE>
0

> <ALOGPS_LOGP>
-1.3

> <JCHEM_LOGP>
-1.4

> <ALOGPS_LOGS>
-0.56

> <JCHEM_POLARIZABILITY>
10.09

> <JCHEM_POLAR_SURFACE_AREA>
61.36

> <JCHEM_REFRACTIVITY>
26.97

> <JCHEM_ROTATABLE_BOND_COUNT>
0

> <ALOGPS_SOLUBILITY>
3.61e+01 g/l __ 

$$$$
