4827
  Mrv0541 02231217562D          

  6  5  0  0  0  0            999 V2000
    3.0791    0.3630    0.0000 O   0  0  0  0  0  0  0  0  0  0  0  0
    3.7935   -0.8745    0.0000 O   0  0  0  0  0  0  0  0  0  0  0  0
    4.5080    0.3630    0.0000 N   0  0  0  0  0  0  0  0  0  0  0  0
    2.3645   -0.0495    0.0000 C   0  0  0  0  0  0  0  0  0  0  0  0
    1.6500    0.3630    0.0000 C   0  0  0  0  0  0  0  0  0  0  0  0
    3.7935   -0.0495    0.0000 C   0  0  0  0  0  0  0  0  0  0  0  0
  1  4  1  0  0  0  0
  1  6  1  0  0  0  0
  2  6  2  0  0  0  0
  3  6  1  0  0  0  0
  4  5  1  0  0  0  0
M  END
> <DRUGBANK_ID>
DB04827

> <DRUG_GROUPS>
withdrawn

> <GENERIC_NAME>
Ethyl carbamate

> <SYNONYMS>
Aethylcarbamat; Aethylurethan; Carbamidsaeure-aethylester; Ethylester kyseliny karbaminove; Uretan etylowy; Urethane; Urethanum

> <BRANDS>


> <CHEMICAL_FORMULA>
C3H7NO2

> <MOLECULAR_WEIGHT>
89.0932

> <EXACT_MASS>
89.047678473

> <IUPAC_NAME>
ethyl carbamate

> <IUPAC_TRADITIONAL_NAME>
ethyl carbamate

> <INCHI_IDENTIFIER>
InChI=1S/C3H7NO2/c1-2-6-3(4)5/h2H2,1H3,(H2,4,5)

> <INCHI_KEY>
InChIKey=JOYRKODLDBILNP-UHFFFAOYSA-N

> <SMILES>
CCOC(N)=O

> <JCHEM_ACCEPTOR_COUNT>
1

> <JCHEM_DONOR_COUNT>
1

> <JCHEM_ACIDIC_PKA>
15.47

> <JCHEM_PHYSIOLOGICAL_CHARGE>
0

> <ALOGPS_LOGP>
-0.14

> <JCHEM_LOGP>
-0.054

> <ALOGPS_LOGS>
0.62

> <JCHEM_POLARIZABILITY>
8.64

> <JCHEM_POLAR_SURFACE_AREA>
52.32

> <JCHEM_REFRACTIVITY>
20.84

> <JCHEM_ROTATABLE_BOND_COUNT>
2

> <ALOGPS_SOLUBILITY>
3.71e+02 g/l __ 

$$$$
