
  Mrv0541 02231217432D          

 40 43  0  0  1  0            999 V2000
   -3.2056    4.3648    0.0000 N   0  0  0  0  0  0  0  0  0  0  0  0
   -2.3986    4.5363    0.0000 C   0  0  0  0  0  0  0  0  0  0  0  0
   -2.1437    5.3209    0.0000 N   0  0  0  0  0  0  0  0  0  0  0  0
   -1.3367    5.4924    0.0000 C   0  0  0  0  0  0  0  0  0  0  0  0
   -0.7847    4.8794    0.0000 N   0  3  0  0  0  0  0  0  0  0  0  0
   -1.0396    4.0947    0.0000 C   0  0  0  0  0  0  0  0  0  0  0  0
   -1.8466    3.9232    0.0000 C   0  0  0  0  0  0  0  0  0  0  0  0
   -1.9328    3.1027    0.0000 N   0  0  0  0  0  0  0  0  0  0  0  0
   -1.1791    2.7672    0.0000 C   0  0  0  0  0  0  0  0  0  0  0  0
   -0.6271    3.3803    0.0000 N   0  0  0  0  0  0  0  0  0  0  0  0
    0.1934    3.2940    0.0000 C   0  0  2  0  0  0  0  0  0  0  0  0
    0.7454    3.9071    0.0000 O   0  0  0  0  0  0  0  0  0  0  0  0
    1.4991    3.5716    0.0000 C   0  0  1  0  0  0  0  0  0  0  0  0
    2.2136    3.9841    0.0000 C   0  0  0  0  0  0  0  0  0  0  0  0
    2.9280    3.5716    0.0000 O   0  0  0  0  0  0  0  0  0  0  0  0
    3.6425    3.9841    0.0000 P   0  0  2  0  0  0  0  0  0  0  0  0
    4.0550    3.2696    0.0000 O   0  0  0  0  0  0  0  0  0  0  0  0
    3.2300    4.6985    0.0000 O   0  0  0  0  0  0  0  0  0  0  0  0
    4.3570    4.3966    0.0000 O   0  0  0  0  0  0  0  0  0  0  0  0
    5.0714    3.9841    0.0000 P   0  0  1  0  0  0  0  0  0  0  0  0
    4.6589    3.2696    0.0000 O   0  0  0  0  0  0  0  0  0  0  0  0
    5.4839    4.6985    0.0000 O   0  0  0  0  0  0  0  0  0  0  0  0
    5.7859    3.5716    0.0000 O   0  0  0  0  0  0  0  0  0  0  0  0
    6.5004    3.9841    0.0000 C   0  0  0  0  0  0  0  0  0  0  0  0
    7.2149    3.5716    0.0000 C   0  0  1  0  0  0  0  0  0  0  0  0
    7.9685    3.9071    0.0000 O   0  0  0  0  0  0  0  0  0  0  0  0
    8.5206    3.2940    0.0000 C   0  0  2  0  0  0  0  0  0  0  0  0
    9.3410    3.3803    0.0000 O   0  0  0  0  0  0  0  0  0  0  0  0
    8.1081    2.5796    0.0000 C   0  0  1  0  0  0  0  0  0  0  0  0
    8.4436    1.8259    0.0000 O   0  0  0  0  0  0  0  0  0  0  0  0
    7.3011    2.7511    0.0000 C   0  0  2  0  0  0  0  0  0  0  0  0
    6.6880    2.1990    0.0000 O   0  0  0  0  0  0  0  0  0  0  0  0
    1.4129    2.7511    0.0000 C   0  0  2  0  0  0  0  0  0  0  0  0
    2.0260    2.1990    0.0000 O   0  0  0  0  0  0  0  0  0  0  0  0
    0.6059    2.5796    0.0000 C   0  0  1  0  0  0  0  0  0  0  0  0
    0.2703    1.8259    0.0000 O   0  0  0  0  0  0  0  0  0  0  0  0
   -0.5502    1.7396    0.0000 P   0  0  0  0  0  0  0  0  0  0  0  0
   -0.6364    2.5601    0.0000 O   0  0  0  0  0  0  0  0  0  0  0  0
   -0.4639    0.9192    0.0000 O   0  0  0  0  0  0  0  0  0  0  0  0
   -1.3706    1.6534    0.0000 O   0  0  0  0  0  0  0  0  0  0  0  0
  1  2  1  0  0  0  0
  2  3  2  0  0  0  0
  3  4  1  0  0  0  0
  4  5  2  0  0  0  0
  5  6  1  0  0  0  0
  6  7  2  0  0  0  0
  2  7  1  0  0  0  0
  7  8  1  0  0  0  0
  8  9  2  0  0  0  0
  9 10  1  0  0  0  0
  6 10  1  0  0  0  0
 11 10  1  6  0  0  0
 11 12  1  0  0  0  0
 12 13  1  0  0  0  0
 13 14  1  1  0  0  0
 14 15  1  0  0  0  0
 16 15  1  6  0  0  0
 16 17  1  1  0  0  0
 16 18  2  0  0  0  0
 16 19  1  0  0  0  0
 20 19  1  1  0  0  0
 20 21  1  6  0  0  0
 20 22  2  0  0  0  0
 20 23  1  0  0  0  0
 23 24  1  0  0  0  0
 25 24  1  1  0  0  0
 25 26  1  0  0  0  0
 26 27  1  0  0  0  0
 27 28  1  6  0  0  0
 27 29  1  0  0  0  0
 29 30  1  1  0  0  0
 29 31  1  0  0  0  0
 25 31  1  0  0  0  0
 31 32  1  6  0  0  0
 13 33  1  0  0  0  0
 33 34  1  6  0  0  0
 33 35  1  0  0  0  0
 11 35  1  0  0  0  0
 35 36  1  1  0  0  0
 36 37  1  0  0  0  0
 37 38  1  0  0  0  0
 37 39  1  0  0  0  0
 37 40  2  0  0  0  0
M  END
> <DRUGBANK_ID>
DB04497

> <DRUG_GROUPS>
experimental

> <GENERIC_NAME>
2'-Monophosphoadenosine-5'-Diphosphoribose

> <CHEMICAL_FORMULA>
C15H25N5O17P3

> <MOLECULAR_WEIGHT>
640.3036

> <EXACT_MASS>
640.045828935

> <IUPAC_NAME>
6-amino-9-[(2R,3R,4S,5S)-4-hydroxy-5-({[hydroxy({[hydroxy({[(2R,3S,4S,5S)-3,4,5-trihydroxyoxolan-2-yl]methoxy})phosphoryl]oxy})phosphoryl]oxy}methyl)-3-(phosphonooxy)oxolan-2-yl]-9H-purin-3-ium

> <IUPAC_TRADITIONAL_NAME>
6-amino-9-[(2R,3R,4S,5S)-4-hydroxy-5-({[hydroxy({hydroxy[(2R,3S,4S,5S)-3,4,5-trihydroxyoxolan-2-yl]methoxyphosphoryl}oxy)phosphoryl]oxy}methyl)-3-(phosphonooxy)oxolan-2-yl]purin-3-ium

> <INCHI_IDENTIFIER>
InChI=1S/C15H24N5O17P3/c16-12-7-13(18-3-17-12)20(4-19-7)14-11(36-38(25,26)27)9(22)6(34-14)2-33-40(30,31)37-39(28,29)32-1-5-8(21)10(23)15(24)35-5/h3-6,8-11,14-15,21-24H,1-2H2,(H,28,29)(H,30,31)(H2,16,17,18)(H2,25,26,27)/p+1/t5-,6+,8-,9+,10+,11-,14-,15+/m1/s1

> <INCHI_KEY>
InChIKey=ICNHOLCERMYLRZ-FJUXWURESA-O

> <SMILES>
NC1=NC=[NH+]C2=C1N=CN2[C@@H]1O[C@@H](CO[P@](O)(=O)O[P@@](O)(=O)OC[C@H]2O[C@H](O)[C@@H](O)[C@@H]2O)[C@H](O)[C@H]1OP(O)(O)=O

> <JCHEM_ACCEPTOR_COUNT>
16

> <JCHEM_DONOR_COUNT>
10

> <JCHEM_ACIDIC_PKA>
0.66

> <JCHEM_BASIC_PKA>
4.92

> <JCHEM_PHYSIOLOGICAL_CHARGE>
-4

> <ALOGPS_LOGP>
-1.3

> <JCHEM_LOGP>
-7.7

> <ALOGPS_LOGS>
-2.1

> <JCHEM_POLARIZABILITY>
51

> <JCHEM_POLAR_SURFACE_AREA>
339.3

> <JCHEM_REFRACTIVITY>
121.69

> <JCHEM_ROTATABLE_BOND_COUNT>
11

> <ALOGPS_SOLUBILITY>
5.84e+00 g/l __ 

$$$$
