4835
  Mrv0541 02231217572D          

 39 43  0  0  1  0            999 V2000
    1.6500    2.3433    0.0000 F   0  0  0  0  0  0  0  0  0  0  0  0
    1.6500    3.1683    0.0000 F   0  0  0  0  0  0  0  0  0  0  0  0
    5.2521    3.4704    0.0000 O   0  0  0  0  0  0  0  0  0  0  0  0
    6.4896   -0.1021    0.0000 N   0  0  0  0  0  0  0  0  0  0  0  0
    4.1491   -2.8122    0.0000 N   0  0  0  0  0  0  0  0  0  0  0  0
    2.8433   -3.0898    0.0000 N   0  0  0  0  0  0  0  0  0  0  0  0
    5.2521    2.0413    0.0000 N   0  0  0  0  0  0  0  0  0  0  0  0
    3.2559   -3.8043    0.0000 N   0  0  0  0  0  0  0  0  0  0  0  0
    6.8838   -1.7097    0.0000 C   0  0  1  0  0  0  0  0  0  0  0  0
    7.0973   -0.9128    0.0000 C   0  0  2  0  0  0  0  0  0  0  0  0
    4.8636   -2.3997    0.0000 C   0  0  0  0  0  0  0  0  0  0  0  0
    5.6173   -2.7353    0.0000 C   0  0  0  0  0  0  0  0  0  0  0  0
    4.9498   -1.5792    0.0000 C   0  0  0  0  0  0  0  0  0  0  0  0
    8.3952   -2.3357    0.0000 C   0  0  0  0  0  0  0  0  0  0  0  0
    8.6087   -1.5388    0.0000 C   0  0  0  0  0  0  0  0  0  0  0  0
    6.0771    0.6123    0.0000 C   0  0  0  0  0  0  0  0  0  0  0  0
    6.4896    1.3269    0.0000 C   0  0  0  0  0  0  0  0  0  0  0  0
    3.3954   -2.4767    0.0000 C   0  0  0  0  0  0  0  0  0  0  0  0
    6.0771    2.0413    0.0000 C   0  0  1  0  0  0  0  0  0  0  0  0
    4.0629   -3.6327    0.0000 C   0  0  0  0  0  0  0  0  0  0  0  0
    3.2238   -1.6697    0.0000 C   0  0  0  0  0  0  0  0  0  0  0  0
    4.6760   -4.1848    0.0000 C   0  0  0  0  0  0  0  0  0  0  0  0
    6.4896    2.7558    0.0000 C   0  0  0  0  0  0  0  0  0  0  0  0
    4.0145    2.7558    0.0000 C   0  0  0  0  0  0  0  0  0  0  0  0
    4.8396    2.7558    0.0000 C   0  0  0  0  0  0  0  0  0  0  0  0
    2.4392   -1.4147    0.0000 C   0  0  0  0  0  0  0  0  0  0  0  0
    3.8370   -1.1177    0.0000 C   0  0  0  0  0  0  0  0  0  0  0  0
    3.6020    2.0413    0.0000 C   0  0  0  0  0  0  0  0  0  0  0  0
    3.6020    3.4704    0.0000 C   0  0  0  0  0  0  0  0  0  0  0  0
    2.7770    2.0413    0.0000 C   0  0  0  0  0  0  0  0  0  0  0  0
    2.7770    3.4704    0.0000 C   0  0  0  0  0  0  0  0  0  0  0  0
    2.3645    2.7558    0.0000 C   0  0  0  0  0  0  0  0  0  0  0  0
    6.0771    3.4704    0.0000 C   0  0  0  0  0  0  0  0  0  0  0  0
    7.3146    2.7558    0.0000 C   0  0  0  0  0  0  0  0  0  0  0  0
    6.4896    4.1848    0.0000 C   0  0  0  0  0  0  0  0  0  0  0  0
    7.7271    3.4704    0.0000 C   0  0  0  0  0  0  0  0  0  0  0  0
    7.3146    4.1848    0.0000 C   0  0  0  0  0  0  0  0  0  0  0  0
    6.7130   -2.3473    0.0000 H   0  0  0  0  0  0  0  0  0  0  0  0
    7.2682   -0.2752    0.0000 H   0  0  0  0  0  0  0  0  0  0  0  0
  1 32  1  0  0  0  0
  2 32  1  0  0  0  0
  3 25  2  0  0  0  0
  4  9  1  0  0  0  0
  4 10  1  0  0  0  0
  4 16  1  0  0  0  0
  5 11  1  0  0  0  0
  5 18  1  0  0  0  0
  5 20  1  0  0  0  0
  6  8  1  0  0  0  0
  6 18  2  0  0  0  0
 19  7  1  6  0  0  0
  7 25  1  0  0  0  0
  8 20  2  0  0  0  0
  9 12  1  0  0  0  0
  9 14  1  0  0  0  0
  9 38  1  1  0  0  0
 10 13  1  0  0  0  0
 10 15  1  0  0  0  0
 10 39  1  6  0  0  0
 11 12  1  0  0  0  0
 11 13  1  0  0  0  0
 14 15  1  0  0  0  0
 16 17  1  0  0  0  0
 17 19  1  0  0  0  0
 18 21  1  0  0  0  0
 19 23  1  0  0  0  0
 20 22  1  0  0  0  0
 21 26  1  0  0  0  0
 21 27  1  0  0  0  0
 23 33  2  0  0  0  0
 23 34  1  0  0  0  0
 24 25  1  0  0  0  0
 24 28  1  0  0  0  0
 24 29  1  0  0  0  0
 28 30  1  0  0  0  0
 29 31  1  0  0  0  0
 30 32  1  0  0  0  0
 31 32  1  0  0  0  0
 33 35  1  0  0  0  0
 34 36  2  0  0  0  0
 35 37  2  0  0  0  0
 36 37  1  0  0  0  0
M  END
> <DRUGBANK_ID>
DB04835

> <DRUG_GROUPS>
approved; investigational

> <GENERIC_NAME>
Maraviroc

> <BRANDS>


> <CHEMICAL_FORMULA>
C29H41F2N5O

> <MOLECULAR_WEIGHT>
513.6655

> <EXACT_MASS>
513.327917369

> <IUPAC_NAME>
4,4-difluoro-N-[(1S)-3-[(1R,5S)-3-[3-methyl-5-(propan-2-yl)-4H-1,2,4-triazol-4-yl]-8-azabicyclo[3.2.1]octan-8-yl]-1-phenylpropyl]cyclohexane-1-carboxamide

> <IUPAC_TRADITIONAL_NAME>
maraviroc

> <INCHI_IDENTIFIER>
InChI=1S/C29H41F2N5O/c1-19(2)27-34-33-20(3)36(27)25-17-23-9-10-24(18-25)35(23)16-13-26(21-7-5-4-6-8-21)32-28(37)22-11-14-29(30,31)15-12-22/h4-8,19,22-26H,9-18H2,1-3H3,(H,32,37)/t23-,24+,25?,26-/m0/s1

> <INCHI_KEY>
InChIKey=GSNHKUDZZFZSJB-HLMSNRGBSA-N

> <SMILES>
[H][C@]12CC[C@]([H])(CC(C1)N1C(C)=NN=C1C(C)C)N2CC[C@H](NC(=O)C1CCC(F)(F)CC1)C1=CC=CC=C1

> <JCHEM_ACCEPTOR_COUNT>
4

> <JCHEM_DONOR_COUNT>
1

> <JCHEM_ACIDIC_PKA>
14.5

> <JCHEM_BASIC_PKA>
9.38

> <JCHEM_PHYSIOLOGICAL_CHARGE>
1

> <ALOGPS_LOGP>
4.3

> <JCHEM_LOGP>
3.63

> <ALOGPS_LOGS>
-4.7

> <JCHEM_POLARIZABILITY>
55.59

> <JCHEM_POLAR_SURFACE_AREA>
63.05

> <JCHEM_REFRACTIVITY>
142.88

> <JCHEM_ROTATABLE_BOND_COUNT>
8

> <ALOGPS_SOLUBILITY>
1.06e-02 g/l __ 

$$$$
