
  Mrv0541 02231217452D          

 27 28  0  0  1  0            999 V2000
   -6.5742    4.8356    0.0000 C   0  0  0  0  0  0  0  0  0  0  0  0
   -6.0893    4.1682    0.0000 C   0  0  0  0  0  0  0  0  0  0  0  0
   -5.2688    4.2544    0.0000 C   0  0  0  0  0  0  0  0  0  0  0  0
   -4.7839    3.5870    0.0000 N   0  0  0  0  0  0  0  0  0  0  0  0
   -3.9634    3.6732    0.0000 C   0  0  1  0  0  0  0  0  0  0  0  0
   -3.5509    4.3877    0.0000 C   0  0  0  0  0  0  0  0  0  0  0  0
   -2.7439    4.2162    0.0000 C   0  0  1  0  0  0  0  0  0  0  0  0
   -2.1308    4.7682    0.0000 N   0  0  0  0  0  0  0  0  0  0  0  0
   -1.3462    4.5133    0.0000 N   0  3  0  0  0  0  0  0  0  0  0  0
   -0.5616    4.2583    0.0000 N   0  5  0  0  0  0  0  0  0  0  0  0
   -2.6577    3.3957    0.0000 C   0  0  2  0  0  0  0  0  0  0  0  0
   -1.9432    2.9832    0.0000 C   0  0  0  0  0  0  0  0  0  0  0  0
   -1.2288    3.3957    0.0000 O   0  0  0  0  0  0  0  0  0  0  0  0
   -0.5143    2.9832    0.0000 P   0  0  2  0  0  0  0  0  0  0  0  0
   -0.1018    3.6977    0.0000 O   0  0  0  0  0  0  0  0  0  0  0  0
   -0.9268    2.2687    0.0000 O   0  0  0  0  0  0  0  0  0  0  0  0
    0.2002    2.5707    0.0000 O   0  0  0  0  0  0  0  0  0  0  0  0
    0.9146    2.9832    0.0000 P   0  0  0  0  0  0  0  0  0  0  0  0
    1.6291    3.3957    0.0000 O   0  0  0  0  0  0  0  0  0  0  0  0
    0.5021    3.6977    0.0000 O   0  0  0  0  0  0  0  0  0  0  0  0
    1.3271    2.2687    0.0000 O   0  0  0  0  0  0  0  0  0  0  0  0
   -3.4114    3.0601    0.0000 O   0  0  0  0  0  0  0  0  0  0  0  0
   -5.1195    2.8333    0.0000 C   0  0  0  0  0  0  0  0  0  0  0  0
   -4.6345    2.1659    0.0000 O   0  0  0  0  0  0  0  0  0  0  0  0
   -5.9399    2.7471    0.0000 N   0  0  0  0  0  0  0  0  0  0  0  0
   -6.4249    3.4145    0.0000 C   0  0  0  0  0  0  0  0  0  0  0  0
   -7.2453    3.3283    0.0000 O   0  0  0  0  0  0  0  0  0  0  0  0
  1  2  1  0  0  0  0
  2  3  2  0  0  0  0
  3  4  1  0  0  0  0
  5  4  1  1  0  0  0
  5  6  1  0  0  0  0
  6  7  1  0  0  0  0
  7  8  1  1  0  0  0
  8  9  2  0  0  0  0
  9 10  2  0  0  0  0
  7 11  1  0  0  0  0
 11 12  1  6  0  0  0
 12 13  1  0  0  0  0
 14 13  1  1  0  0  0
 14 15  1  6  0  0  0
 14 16  2  0  0  0  0
 14 17  1  0  0  0  0
 17 18  1  0  0  0  0
 18 19  1  0  0  0  0
 18 20  1  0  0  0  0
 18 21  2  0  0  0  0
 11 22  1  0  0  0  0
  5 22  1  0  0  0  0
  4 23  1  0  0  0  0
 23 24  2  0  0  0  0
 23 25  1  0  0  0  0
 25 26  1  0  0  0  0
  2 26  1  0  0  0  0
 26 27  2  0  0  0  0
M  END
> <DRUGBANK_ID>
DB04542

> <DRUG_GROUPS>
experimental

> <GENERIC_NAME>
3'-Azido-3'-Deoxythymidine-5'-Diphosphate

> <CHEMICAL_FORMULA>
C10H15N5O10P2

> <MOLECULAR_WEIGHT>
427.2011

> <EXACT_MASS>
427.029414749

> <IUPAC_NAME>
[({[(2R,3R,5R)-3-azido-5-(5-methyl-2,4-dioxo-1,2,3,4-tetrahydropyrimidin-1-yl)oxolan-2-yl]methoxy}(hydroxy)phosphoryl)oxy]phosphonic acid

> <IUPAC_TRADITIONAL_NAME>
{[(2R,3R,5R)-3-azido-5-(5-methyl-2,4-dioxo-3H-pyrimidin-1-yl)oxolan-2-yl]methoxy(hydroxy)phosphoryl}oxyphosphonic acid

> <INCHI_IDENTIFIER>
InChI=1S/C10H15N5O10P2/c1-5-3-15(10(17)12-9(5)16)8-2-6(13-14-11)7(24-8)4-23-27(21,22)25-26(18,19)20/h3,6-8H,2,4H2,1H3,(H,21,22)(H,12,16,17)(H2,18,19,20)/t6-,7+,8-/m1/s1

> <INCHI_KEY>
InChIKey=QOYVAFWJURKBJG-GJMOJQLCSA-N

> <SMILES>
CC1=CN([C@H]2C[C@@H](N=[N+]=[N-])[C@H](CO[P@](O)(=O)OP(O)(O)=O)O2)C(=O)NC1=O

> <JCHEM_ACCEPTOR_COUNT>
10

> <JCHEM_DONOR_COUNT>
4

> <JCHEM_ACIDIC_PKA>
1.77

> <JCHEM_BASIC_PKA>
-4.2

> <JCHEM_PHYSIOLOGICAL_CHARGE>
-2

> <ALOGPS_LOGP>
0.55

> <JCHEM_LOGP>
-0.84

> <ALOGPS_LOGS>
-1.8

> <JCHEM_POLARIZABILITY>
33.74

> <JCHEM_POLAR_SURFACE_AREA>
201.36

> <JCHEM_REFRACTIVITY>
83.45

> <JCHEM_ROTATABLE_BOND_COUNT>
7

> <ALOGPS_SOLUBILITY>
6.79e+00 g/l __ 

$$$$
