
  Mrv0541 02231217242D          

 35 37  0  0  1  0            999 V2000
   -1.4289   -2.4750    0.0000 O   0  0  0  0  0  0  0  0  0  0  0  0
   -2.1434   -2.8875    0.0000 C   0  0  0  0  0  0  0  0  0  0  0  0
   -2.1434   -3.7125    0.0000 C   0  0  2  0  0  0  0  0  0  0  0  0
   -2.8579   -4.1250    0.0000 O   0  0  0  0  0  0  0  0  0  0  0  0
   -2.8579   -4.9500    0.0000 C   0  0  1  0  0  0  0  0  0  0  0  0
   -3.5724   -5.3625    0.0000 O   0  0  0  0  0  0  0  0  0  0  0  0
   -4.2868   -4.9500    0.0000 C   0  0  1  0  0  0  0  0  0  0  0  0
   -4.2868   -4.1250    0.0000 C   0  0  2  0  0  0  0  0  0  0  0  0
   -3.5724   -3.7125    0.0000 O   0  0  0  0  0  0  0  0  0  0  0  0
   -5.0013   -3.7125    0.0000 C   0  0  1  0  0  0  0  0  0  0  0  0
   -5.0013   -2.8875    0.0000 F   0  0  0  0  0  0  0  0  0  0  0  0
   -5.7158   -4.1250    0.0000 C   0  0  1  0  0  0  0  0  0  0  0  0
   -5.7158   -4.9500    0.0000 O   0  0  0  0  0  0  0  0  0  0  0  0
   -5.0013   -5.3625    0.0000 C   0  0  1  0  0  0  0  0  0  0  0  0
   -5.0013   -6.1875    0.0000 C   0  0  0  0  0  0  0  0  0  0  0  0
   -4.2868   -6.6000    0.0000 O   0  0  0  0  0  0  0  0  0  0  0  0
   -6.4302   -3.7125    0.0000 O   0  0  0  0  0  0  0  0  0  0  0  0
   -7.1447   -4.1250    0.0000 C   0  0  0  0  0  0  0  0  0  0  0  0
   -7.1447   -4.9500    0.0000 C   0  0  0  0  0  0  0  0  0  0  0  0
   -7.8592   -5.3625    0.0000 C   0  0  0  0  0  0  0  0  0  0  0  0
   -8.5737   -4.9500    0.0000 C   0  0  0  0  0  0  0  0  0  0  0  0
   -8.5737   -4.1250    0.0000 C   0  0  0  0  0  0  0  0  0  0  0  0
   -7.8592   -3.7125    0.0000 C   0  0  0  0  0  0  0  0  0  0  0  0
   -7.8592   -2.8875    0.0000 N   0  3  0  0  0  0  0  0  0  0  0  0
   -7.1447   -2.4750    0.0000 O   0  5  0  0  0  0  0  0  0  0  0  0
   -8.5737   -2.4750    0.0000 O   0  0  0  0  0  0  0  0  0  0  0  0
   -9.2881   -5.3625    0.0000 N   0  3  0  0  0  0  0  0  0  0  0  0
   -9.2881   -6.1875    0.0000 O   0  5  0  0  0  0  0  0  0  0  0  0
  -10.0026   -4.9500    0.0000 O   0  0  0  0  0  0  0  0  0  0  0  0
   -2.1434   -5.3625    0.0000 C   0  0  1  0  0  0  0  0  0  0  0  0
   -2.1434   -6.1875    0.0000 O   0  0  0  0  0  0  0  0  0  0  0  0
   -1.4289   -4.9500    0.0000 C   0  0  2  0  0  0  0  0  0  0  0  0
   -0.7145   -5.3625    0.0000 O   0  0  0  0  0  0  0  0  0  0  0  0
   -1.4289   -4.1250    0.0000 C   0  0  1  0  0  0  0  0  0  0  0  0
   -0.7145   -3.7125    0.0000 O   0  0  0  0  0  0  0  0  0  0  0  0
  1  2  1  0  0  0  0
  3  2  1  1  0  0  0
  3  4  1  0  0  0  0
  4  5  1  0  0  0  0
  5  6  1  6  0  0  0
  7  6  1  6  0  0  0
  7  8  1  0  0  0  0
  8  9  1  1  0  0  0
  8 10  1  0  0  0  0
 10 11  1  6  0  0  0
 10 12  1  0  0  0  0
 12 13  1  0  0  0  0
 13 14  1  0  0  0  0
  7 14  1  0  0  0  0
 14 15  1  6  0  0  0
 15 16  1  0  0  0  0
 12 17  1  1  0  0  0
 17 18  1  0  0  0  0
 18 19  2  0  0  0  0
 19 20  1  0  0  0  0
 20 21  2  0  0  0  0
 21 22  1  0  0  0  0
 22 23  2  0  0  0  0
 18 23  1  0  0  0  0
 23 24  1  0  0  0  0
 24 25  1  0  0  0  0
 24 26  2  0  0  0  0
 21 27  1  0  0  0  0
 27 28  1  0  0  0  0
 27 29  2  0  0  0  0
  5 30  1  0  0  0  0
 30 31  1  6  0  0  0
 30 32  1  0  0  0  0
 32 33  1  1  0  0  0
 32 34  1  0  0  0  0
  3 34  1  0  0  0  0
 34 35  1  6  0  0  0
M  END
> <DRUGBANK_ID>
DB04086

> <DRUG_GROUPS>
experimental

> <GENERIC_NAME>
2',4'-Dinitrophenyl-2deoxy-2-Fluro-B-D-Cellobioside

> <CHEMICAL_FORMULA>
C18H23FN2O14

> <MOLECULAR_WEIGHT>
510.3786

> <EXACT_MASS>
510.113331659

> <IUPAC_NAME>
(2S,3S,4R,5R,6S)-2-{[(2S,3S,4S,5R,6S)-6-(2,4-dinitrophenoxy)-5-fluoro-4-hydroxy-2-(hydroxymethyl)oxan-3-yl]oxy}-6-(hydroxymethyl)oxane-3,4,5-triol

> <IUPAC_TRADITIONAL_NAME>
(2S,3S,4R,5R,6S)-2-{[(2S,3S,4S,5R,6S)-6-(2,4-dinitrophenoxy)-5-fluoro-4-hydroxy-2-(hydroxymethyl)oxan-3-yl]oxy}-6-(hydroxymethyl)oxane-3,4,5-triol

> <INCHI_IDENTIFIER>
InChI=1S/C18H23FN2O14/c19-11-13(25)16(35-18-15(27)14(26)12(24)9(4-22)33-18)10(5-23)34-17(11)32-8-2-1-6(20(28)29)3-7(8)21(30)31/h1-3,9-18,22-27H,4-5H2/t9-,10-,11+,12-,13+,14+,15-,16+,17+,18-/m0/s1

> <INCHI_KEY>
InChIKey=WFVCNOHOODVBQK-XXGQGYBTSA-N

> <SMILES>
OC[C@@H]1O[C@@H](O[C@H]2[C@H](O)[C@@H](F)[C@H](OC3=CC=C(C=C3[N+]([O-])=O)[N+]([O-])=O)O[C@H]2CO)[C@@H](O)[C@H](O)[C@H]1O

> <JCHEM_ACCEPTOR_COUNT>
14

> <JCHEM_DONOR_COUNT>
6

> <JCHEM_ACIDIC_PKA>
12.08

> <JCHEM_BASIC_PKA>
-3

> <JCHEM_PHYSIOLOGICAL_CHARGE>
0

> <ALOGPS_LOGP>
-0.82

> <JCHEM_LOGP>
-1.6

> <ALOGPS_LOGS>
-2

> <JCHEM_POLARIZABILITY>
44.02

> <JCHEM_POLAR_SURFACE_AREA>
249.94

> <JCHEM_REFRACTIVITY>
105.55

> <JCHEM_ROTATABLE_BOND_COUNT>
8

> <ALOGPS_SOLUBILITY>
5.50e+00 g/l __ 

$$$$
