
  Mrv0541 02231217292D          

  5  4  0  0  0  0            999 V2000
    0.8250    1.4289    0.0000 C   0  0  0  0  0  0  0  0  0  0  0  0
    1.2375    0.7145    0.0000 C   0  0  0  0  0  0  0  0  0  0  0  0
    0.8250    0.0000    0.0000 C   0  0  0  0  0  0  0  0  0  0  0  0
    1.2375   -0.7145    0.0000 N   0  0  0  0  0  0  0  0  0  0  0  0
    0.0000    0.0000    0.0000 O   0  0  0  0  0  0  0  0  0  0  0  0
  1  2  1  0  0  0  0
  2  3  1  0  0  0  0
  3  4  1  0  0  0  0
  3  5  2  0  0  0  0
M  END
> <DRUGBANK_ID>
DB04161

> <DRUG_GROUPS>
experimental

> <GENERIC_NAME>
Propionamide

> <CHEMICAL_FORMULA>
C3H7NO

> <MOLECULAR_WEIGHT>
73.0938

> <EXACT_MASS>
73.052763851

> <IUPAC_NAME>
propanamide

> <IUPAC_TRADITIONAL_NAME>
propionamide

> <INCHI_IDENTIFIER>
InChI=1S/C3H7NO/c1-2-3(4)5/h2H2,1H3,(H2,4,5)

> <INCHI_KEY>
InChIKey=QLNJFJADRCOGBJ-UHFFFAOYSA-N

> <SMILES>
CCC(N)=O

> <JCHEM_ACCEPTOR_COUNT>
1

> <JCHEM_DONOR_COUNT>
1

> <JCHEM_ACIDIC_PKA>
16.86

> <JCHEM_BASIC_PKA>
-1

> <JCHEM_PHYSIOLOGICAL_CHARGE>
0

> <ALOGPS_LOGP>
-0.65

> <JCHEM_LOGP>
-0.33

> <ALOGPS_LOGS>
0.7

> <JCHEM_POLARIZABILITY>
7.63

> <JCHEM_POLAR_SURFACE_AREA>
43.09

> <JCHEM_REFRACTIVITY>
19.09

> <JCHEM_ROTATABLE_BOND_COUNT>
1

> <ALOGPS_SOLUBILITY>
3.64e+02 g/l __ 

$$$$
