
  Mrv0541 02231217522D          

 10 10  0  0  1  0            999 V2000
    1.4289    2.4750    0.0000 O   0  0  0  0  0  0  0  0  0  0  0  0
    0.7145    2.0625    0.0000 C   0  0  2  0  0  0  0  0  0  0  0  0
    0.0000    2.4750    0.0000 C   0  0  0  0  0  0  0  0  0  0  0  0
   -0.7145    2.8875    0.0000 N   0  0  0  0  0  0  0  0  0  0  0  0
    0.7145    1.2375    0.0000 C   0  0  0  0  0  0  0  0  0  0  0  0
    1.4289    0.8250    0.0000 C   0  0  0  0  0  0  0  0  0  0  0  0
    1.4289    0.0000    0.0000 C   0  0  0  0  0  0  0  0  0  0  0  0
    0.7145   -0.4125    0.0000 C   0  0  0  0  0  0  0  0  0  0  0  0
    0.0000    0.0000    0.0000 C   0  0  0  0  0  0  0  0  0  0  0  0
    0.0000    0.8250    0.0000 C   0  0  0  0  0  0  0  0  0  0  0  0
  2  1  1  1  0  0  0
  2  3  1  0  0  0  0
  3  4  3  0  0  0  0
  2  5  1  0  0  0  0
  5  6  2  0  0  0  0
  6  7  1  0  0  0  0
  7  8  2  0  0  0  0
  8  9  1  0  0  0  0
  9 10  2  0  0  0  0
  5 10  1  0  0  0  0
M  END
> <DRUGBANK_ID>
DB04737

> <DRUG_GROUPS>
experimental

> <GENERIC_NAME>
(S)-HYDROXY(PHENYL)ACETONITRILE

> <CHEMICAL_FORMULA>
C8H7NO

> <MOLECULAR_WEIGHT>
133.1473

> <EXACT_MASS>
133.052763851

> <IUPAC_NAME>
(2S)-2-hydroxy-2-phenylacetonitrile

> <IUPAC_TRADITIONAL_NAME>
(S)-mandelonitrile

> <INCHI_IDENTIFIER>
InChI=1S/C8H7NO/c9-6-8(10)7-4-2-1-3-5-7/h1-5,8,10H/t8-/m1/s1

> <INCHI_KEY>
InChIKey=NNICRUQPODTGRU-MRVPVSSYSA-N

> <SMILES>
O[C@H](C#N)C1=CC=CC=C1

> <JCHEM_ACCEPTOR_COUNT>
2

> <JCHEM_DONOR_COUNT>
1

> <JCHEM_ACIDIC_PKA>
11.8

> <JCHEM_BASIC_PKA>
-4.2

> <JCHEM_PHYSIOLOGICAL_CHARGE>
0

> <ALOGPS_LOGP>
0.68

> <JCHEM_LOGP>
0.95

> <ALOGPS_LOGS>
-1.4

> <JCHEM_POLARIZABILITY>
13.56

> <JCHEM_POLAR_SURFACE_AREA>
44.02

> <JCHEM_REFRACTIVITY>
37.68

> <JCHEM_ROTATABLE_BOND_COUNT>
1

> <ALOGPS_SOLUBILITY>
5.89e+00 g/l __ 

$$$$
