
  Mrv0541 02231217292D          

 10  9  0  0  0  0            999 V2000
    1.7605    1.8414    0.0000 C   0  0  0  0  0  0  0  0  0  0  0  0
    2.4750    1.4289    0.0000 C   0  0  0  0  0  0  0  0  0  0  0  0
    3.1895    1.8414    0.0000 C   0  0  0  0  0  0  0  0  0  0  0  0
    3.9039    1.4289    0.0000 C   0  0  0  0  0  0  0  0  0  0  0  0
    4.6184    1.8414    0.0000 C   0  0  0  0  0  0  0  0  0  0  0  0
    5.3329    1.4289    0.0000 C   0  0  0  0  0  0  0  0  0  0  0  0
    6.0474    1.8414    0.0000 C   0  0  0  0  0  0  0  0  0  0  0  0
    3.9039    0.6039    0.0000 C   0  0  0  0  0  0  0  0  0  0  0  0
    4.6184    0.1914    0.0000 N   0  0  0  0  0  0  0  0  0  0  0  0
    3.1895    0.1914    0.0000 O   0  0  0  0  0  0  0  0  0  0  0  0
  1  2  1  0  0  0  0
  2  3  1  0  0  0  0
  3  4  1  0  0  0  0
  4  5  1  0  0  0  0
  5  6  1  0  0  0  0
  6  7  1  0  0  0  0
  4  8  1  0  0  0  0
  8  9  1  0  0  0  0
  8 10  2  0  0  0  0
M  END
> <DRUGBANK_ID>
DB04165

> <DRUG_GROUPS>
experimental

> <GENERIC_NAME>
Valpromide

> <CHEMICAL_FORMULA>
C8H17NO

> <MOLECULAR_WEIGHT>
143.2267

> <EXACT_MASS>
143.131014171

> <IUPAC_NAME>
2-propylpentanamide

> <IUPAC_TRADITIONAL_NAME>
valpromide

> <INCHI_IDENTIFIER>
InChI=1S/C8H17NO/c1-3-5-7(6-4-2)8(9)10/h7H,3-6H2,1-2H3,(H2,9,10)

> <INCHI_KEY>
InChIKey=OMOMUFTZPTXCHP-UHFFFAOYSA-N

> <SMILES>
CCCC(CCC)C(N)=O

> <JCHEM_ACCEPTOR_COUNT>
1

> <JCHEM_DONOR_COUNT>
1

> <JCHEM_ACIDIC_PKA>
17.09

> <JCHEM_BASIC_PKA>
0.13

> <JCHEM_PHYSIOLOGICAL_CHARGE>
0

> <ALOGPS_LOGP>
2.38

> <JCHEM_LOGP>
1.99

> <ALOGPS_LOGS>
-1.6

> <JCHEM_POLARIZABILITY>
17.37

> <JCHEM_POLAR_SURFACE_AREA>
43.09

> <JCHEM_REFRACTIVITY>
42.07

> <JCHEM_ROTATABLE_BOND_COUNT>
5

> <ALOGPS_SOLUBILITY>
3.52e+00 g/l __ 

$$$$
