
  Mrv0541 02231217372D          

 13 13  0  0  0  0            999 V2000
    2.1434    2.0625    0.0000 O   0  5  0  0  0  0  0  0  0  0  0  0
    2.1434    1.2375    0.0000 C   0  0  0  0  0  0  0  0  0  0  0  0
    2.8579    0.8250    0.0000 O   0  0  0  0  0  0  0  0  0  0  0  0
    1.4289    0.8250    0.0000 C   0  0  0  0  0  0  0  0  0  0  0  0
    1.4289    0.0000    0.0000 C   0  0  0  0  0  0  0  0  0  0  0  0
    0.7145   -0.4125    0.0000 C   0  0  0  0  0  0  0  0  0  0  0  0
    0.0000    0.0000    0.0000 C   0  0  0  0  0  0  0  0  0  0  0  0
    0.0000    0.8250    0.0000 C   0  0  0  0  0  0  0  0  0  0  0  0
    0.7145    1.2375    0.0000 C   0  0  0  0  0  0  0  0  0  0  0  0
    0.7145    2.0625    0.0000 O   0  0  0  0  0  0  0  0  0  0  0  0
    0.0000    2.4750    0.0000 P   0  0  1  0  0  0  0  0  0  0  0  0
   -0.7145    2.0625    0.0000 O   0  5  0  0  0  0  0  0  0  0  0  0
    0.0000    3.3000    0.0000 O   0  0  0  0  0  0  0  0  0  0  0  0
  1  2  1  0  0  0  0
  2  3  2  0  0  0  0
  2  4  1  0  0  0  0
  4  5  2  0  0  0  0
  5  6  1  0  0  0  0
  6  7  2  0  0  0  0
  7  8  1  0  0  0  0
  8  9  2  0  0  0  0
  4  9  1  0  0  0  0
  9 10  1  0  0  0  0
 10 11  1  0  0  0  0
 11 12  1  1  0  0  0
 11 13  2  0  0  0  0
M  END
> <DRUGBANK_ID>
DB04340

> <DRUG_GROUPS>
experimental

> <GENERIC_NAME>
2-[(Dioxidophosphino)Oxy]Benzoate

> <CHEMICAL_FORMULA>
C7H5O5P

> <MOLECULAR_WEIGHT>
200.0854

> <EXACT_MASS>
199.987459782

> <IUPAC_NAME>
2-(phosphinatooxy)benzoate

> <IUPAC_TRADITIONAL_NAME>
2-(phosphinatooxy)benzoate

> <INCHI_IDENTIFIER>
InChI=1S/C7H7O5P/c8-7(9)5-3-1-2-4-6(5)12-13(10)11/h1-4,13H,(H,8,9)(H,10,11)/p-2

> <INCHI_KEY>
InChIKey=BTPFLIXGJHTRNG-UHFFFAOYSA-L

> <SMILES>
[O-]C(=O)C1=CC=CC=C1OP([O-])=O

> <JCHEM_ACCEPTOR_COUNT>
4

> <JCHEM_DONOR_COUNT>
0

> <JCHEM_ACIDIC_PKA>
2.02

> <JCHEM_PHYSIOLOGICAL_CHARGE>
-2

> <ALOGPS_LOGP>
0.34

> <JCHEM_LOGP>
0.48

> <ALOGPS_LOGS>
-1.2

> <JCHEM_POLARIZABILITY>
15.77

> <JCHEM_POLAR_SURFACE_AREA>
89.49

> <JCHEM_REFRACTIVITY>
53.8

> <JCHEM_ROTATABLE_BOND_COUNT>
3

> <ALOGPS_SOLUBILITY>
1.37e+01 g/l __ 

$$$$
