
  Mrv0541 02231217452D          

 18 18  0  0  1  0            999 V2000
    2.5875    2.3582    0.0000 C   0  0  0  0  0  0  0  0  0  0  0  0
    2.0572    1.7262    0.0000 C   0  0  0  0  0  0  0  0  0  0  0  0
    2.3394    0.9510    0.0000 O   0  0  0  0  0  0  0  0  0  0  0  0
    1.2448    1.8695    0.0000 N   0  0  0  0  0  0  0  0  0  0  0  0
    0.7145    1.2375    0.0000 C   0  0  2  0  0  0  0  0  0  0  0  0
    1.4289    0.8250    0.0000 O   0  0  0  0  0  0  0  0  0  0  0  0
    1.4289    0.0000    0.0000 C   0  0  1  0  0  0  0  0  0  0  0  0
    2.1434   -0.4125    0.0000 C   0  0  0  0  0  0  0  0  0  0  0  0
    2.8579    0.0000    0.0000 O   0  0  0  0  0  0  0  0  0  0  0  0
    0.7145   -0.4125    0.0000 C   0  0  2  0  0  0  0  0  0  0  0  0
    0.7145   -1.2375    0.0000 O   0  0  0  0  0  0  0  0  0  0  0  0
    0.0000    0.0000    0.0000 C   0  0  1  0  0  0  0  0  0  0  0  0
   -0.7145   -0.4125    0.0000 O   0  0  0  0  0  0  0  0  0  0  0  0
    0.0000    0.8250    0.0000 C   0  0  2  0  0  0  0  0  0  0  0  0
   -0.7145    1.2375    0.0000 O   0  0  0  0  0  0  0  0  0  0  0  0
    0.1842    1.8695    0.0000 C   0  0  0  0  0  0  0  0  0  0  0  0
   -0.6283    1.7262    0.0000 N   0  0  0  0  0  0  0  0  0  0  0  0
    0.4663    2.6447    0.0000 O   0  0  0  0  0  0  0  0  0  0  0  0
  1  2  1  0  0  0  0
  2  3  2  0  0  0  0
  2  4  1  0  0  0  0
  5  4  1  6  0  0  0
  5  6  1  0  0  0  0
  6  7  1  0  0  0  0
  7  8  1  1  0  0  0
  8  9  1  0  0  0  0
  7 10  1  0  0  0  0
 10 11  1  6  0  0  0
 10 12  1  0  0  0  0
 12 13  1  1  0  0  0
 12 14  1  0  0  0  0
  5 14  1  0  0  0  0
 14 15  1  6  0  0  0
  5 16  1  1  0  0  0
 16 17  1  0  0  0  0
 16 18  2  0  0  0  0
M  END
> <DRUGBANK_ID>
DB04544

> <DRUG_GROUPS>
experimental

> <GENERIC_NAME>
1-Deoxy-1-Acetylamino-Beta-D-Gluco-2-Heptulopyranosonamide

> <CHEMICAL_FORMULA>
C9H16N2O7

> <MOLECULAR_WEIGHT>
264.2325

> <EXACT_MASS>
264.095750876

> <IUPAC_NAME>
(2S,3S,4R,5R,6S)-2-acetamido-3,4,5-trihydroxy-6-(hydroxymethyl)oxane-2-carboxamide

> <IUPAC_TRADITIONAL_NAME>
(2S,3S,4R,5R,6S)-2-acetamido-3,4,5-trihydroxy-6-(hydroxymethyl)oxane-2-carboxamide

> <INCHI_IDENTIFIER>
InChI=1S/C9H16N2O7/c1-3(13)11-9(8(10)17)7(16)6(15)5(14)4(2-12)18-9/h4-7,12,14-16H,2H2,1H3,(H2,10,17)(H,11,13)/t4-,5-,6+,7-,9-/m0/s1

> <INCHI_KEY>
InChIKey=BUPVODXECQDZQR-MNDKRXPHSA-N

> <SMILES>
CC(=O)N[C@@]1(O[C@@H](CO)[C@H](O)[C@@H](O)[C@@H]1O)C(N)=O

> <JCHEM_ACCEPTOR_COUNT>
7

> <JCHEM_DONOR_COUNT>
6

> <JCHEM_ACIDIC_PKA>
10.98

> <JCHEM_BASIC_PKA>
-2

> <JCHEM_PHYSIOLOGICAL_CHARGE>
0

> <ALOGPS_LOGP>
-2.6

> <JCHEM_LOGP>
-4

> <ALOGPS_LOGS>
-0.28

> <JCHEM_POLARIZABILITY>
23.74

> <JCHEM_POLAR_SURFACE_AREA>
162.34

> <JCHEM_REFRACTIVITY>
55.19

> <JCHEM_ROTATABLE_BOND_COUNT>
3

> <ALOGPS_SOLUBILITY>
1.38e+02 g/l __ 

$$$$
