
  Mrv0541 02231217432D          

  8  8  0  0  0  0            999 V2000
    0.0000    2.4750    0.0000 S   0  0  0  0  0  0  0  0  0  0  0  0
    0.7145    2.0625    0.0000 C   0  0  0  0  0  0  0  0  0  0  0  0
    0.7145    1.2375    0.0000 C   0  0  0  0  0  0  0  0  0  0  0  0
    1.4289    0.8250    0.0000 C   0  0  0  0  0  0  0  0  0  0  0  0
    1.4289    0.0000    0.0000 C   0  0  0  0  0  0  0  0  0  0  0  0
    0.7145   -0.4125    0.0000 C   0  0  0  0  0  0  0  0  0  0  0  0
    0.0000    0.0000    0.0000 N   0  0  0  0  0  0  0  0  0  0  0  0
    0.0000    0.8250    0.0000 C   0  0  0  0  0  0  0  0  0  0  0  0
  1  2  1  0  0  0  0
  2  3  1  0  0  0  0
  3  4  2  0  0  0  0
  4  5  1  0  0  0  0
  5  6  2  0  0  0  0
  6  7  1  0  0  0  0
  7  8  2  0  0  0  0
  3  8  1  0  0  0  0
M  END
> <DRUGBANK_ID>
DB04490

> <DRUG_GROUPS>
experimental

> <GENERIC_NAME>
3-(Mercaptomethylene)Pyridine

> <CHEMICAL_FORMULA>
C6H7NS

> <MOLECULAR_WEIGHT>
125.191

> <EXACT_MASS>
125.029919919

> <IUPAC_NAME>
pyridin-3-ylmethanethiol

> <IUPAC_TRADITIONAL_NAME>
pyridin-3-ylmethanethiol

> <INCHI_IDENTIFIER>
InChI=1S/C6H7NS/c8-5-6-2-1-3-7-4-6/h1-4,8H,5H2

> <INCHI_KEY>
InChIKey=MBXKCLHOVPXMCJ-UHFFFAOYSA-N

> <SMILES>
SCC1=CC=CN=C1

> <JCHEM_ACCEPTOR_COUNT>
1

> <JCHEM_DONOR_COUNT>
1

> <JCHEM_ACIDIC_PKA>
9.92

> <JCHEM_BASIC_PKA>
4.86

> <JCHEM_PHYSIOLOGICAL_CHARGE>
0

> <ALOGPS_LOGP>
1.44

> <JCHEM_LOGP>
1.24

> <ALOGPS_LOGS>
-1.9

> <JCHEM_POLARIZABILITY>
13.22

> <JCHEM_POLAR_SURFACE_AREA>
12.89

> <JCHEM_REFRACTIVITY>
36.75

> <JCHEM_ROTATABLE_BOND_COUNT>
1

> <ALOGPS_SOLUBILITY>
1.62e+00 g/l __ 

$$$$
