
  Mrv0541 02231217522D          

 19 21  0  0  0  0            999 V2000
    2.1434   -1.2375    0.0000 C   0  0  0  0  0  0  0  0  0  0  0  0
    2.1434   -0.4125    0.0000 N   0  0  0  0  0  0  0  0  0  0  0  0
    2.8579    0.0000    0.0000 C   0  0  0  0  0  0  0  0  0  0  0  0
    3.5724   -0.4125    0.0000 N   0  0  0  0  0  0  0  0  0  0  0  0
    4.2868    0.0000    0.0000 C   0  0  0  0  0  0  0  0  0  0  0  0
    5.0013   -0.4125    0.0000 O   0  0  0  0  0  0  0  0  0  0  0  0
    4.2868    0.8250    0.0000 N   0  0  0  0  0  0  0  0  0  0  0  0
    3.5724    1.2375    0.0000 C   0  0  0  0  0  0  0  0  0  0  0  0
    3.5724    2.0625    0.0000 O   0  0  0  0  0  0  0  0  0  0  0  0
    2.8579    0.8250    0.0000 C   0  0  0  0  0  0  0  0  0  0  0  0
    2.1434    1.2375    0.0000 N   0  0  0  0  0  0  0  0  0  0  0  0
    1.4289    0.8250    0.0000 C   0  0  0  0  0  0  0  0  0  0  0  0
    1.4289    0.0000    0.0000 C   0  0  0  0  0  0  0  0  0  0  0  0
    0.7145   -0.4125    0.0000 C   0  0  0  0  0  0  0  0  0  0  0  0
    0.0000    0.0000    0.0000 C   0  0  0  0  0  0  0  0  0  0  0  0
   -0.7145   -0.4125    0.0000 C   0  0  0  0  0  0  0  0  0  0  0  0
    0.0000    0.8250    0.0000 C   0  0  0  0  0  0  0  0  0  0  0  0
   -0.7145    1.2375    0.0000 C   0  0  0  0  0  0  0  0  0  0  0  0
    0.7145    1.2375    0.0000 C   0  0  0  0  0  0  0  0  0  0  0  0
  1  2  1  0  0  0  0
  2  3  1  0  0  0  0
  3  4  2  0  0  0  0
  4  5  1  0  0  0  0
  5  6  2  0  0  0  0
  5  7  1  0  0  0  0
  7  8  1  0  0  0  0
  8  9  2  0  0  0  0
  8 10  1  0  0  0  0
  3 10  1  0  0  0  0
 10 11  2  0  0  0  0
 11 12  1  0  0  0  0
 12 13  2  0  0  0  0
  2 13  1  0  0  0  0
 13 14  1  0  0  0  0
 14 15  2  0  0  0  0
 15 16  1  0  0  0  0
 15 17  1  0  0  0  0
 17 18  1  0  0  0  0
 17 19  2  0  0  0  0
 12 19  1  0  0  0  0
M  END
> <DRUGBANK_ID>
DB04726

> <DRUG_GROUPS>
experimental

> <GENERIC_NAME>
7,8,10-TRIMETHYLBENZO[G]PTERIDINE-2,4(3H,10H)-DIONE

> <CHEMICAL_FORMULA>
C13H12N4O2

> <MOLECULAR_WEIGHT>
256.26

> <EXACT_MASS>
256.096025648

> <IUPAC_NAME>
7,8,10-trimethyl-2H,3H,4H,10H-benzo[g]pteridine-2,4-dione

> <IUPAC_TRADITIONAL_NAME>
lumiflavin

> <INCHI_IDENTIFIER>
InChI=1S/C13H12N4O2/c1-6-4-8-9(5-7(6)2)17(3)11-10(14-8)12(18)16-13(19)15-11/h4-5H,1-3H3,(H,16,18,19)

> <INCHI_KEY>
InChIKey=KPDQZGKJTJRBGU-UHFFFAOYSA-N

> <SMILES>
CN1C2=C(C=C(C)C(C)=C2)N=C2C(=O)NC(=O)N=C12

> <JCHEM_ACCEPTOR_COUNT>
5

> <JCHEM_DONOR_COUNT>
1

> <JCHEM_ACIDIC_PKA>
6.97

> <JCHEM_BASIC_PKA>
0.77

> <JCHEM_PHYSIOLOGICAL_CHARGE>
-1

> <ALOGPS_LOGP>
0.52

> <JCHEM_LOGP>
1.66

> <ALOGPS_LOGS>
-3.1

> <JCHEM_POLARIZABILITY>
26.33

> <JCHEM_POLAR_SURFACE_AREA>
74.13

> <JCHEM_REFRACTIVITY>
72.09

> <JCHEM_ROTATABLE_BOND_COUNT>
0

> <ALOGPS_SOLUBILITY>
2.18e-01 g/l __ 

$$$$
