
  Mrv0541 02231217322D          

 36 39  0  0  1  0            999 V2000
   -1.2375    3.3513    0.0000 N   0  0  0  0  0  0  0  0  0  0  0  0
   -1.6500    2.6368    0.0000 C   0  0  0  0  0  0  0  0  0  0  0  0
   -2.4750    2.6368    0.0000 N   0  0  0  0  0  0  0  0  0  0  0  0
   -1.2375    1.9224    0.0000 C   0  0  0  0  0  0  0  0  0  0  0  0
   -0.4125    1.9224    0.0000 C   0  0  0  0  0  0  0  0  0  0  0  0
    0.0000    1.2079    0.0000 C   0  0  0  0  0  0  0  0  0  0  0  0
   -0.4125    0.4934    0.0000 C   0  0  0  0  0  0  0  0  0  0  0  0
   -1.2375    0.4934    0.0000 C   0  0  0  0  0  0  0  0  0  0  0  0
   -1.6500   -0.2211    0.0000 C   0  0  0  0  0  0  0  0  0  0  0  0
   -1.2375   -0.9355    0.0000 C   0  0  1  0  0  0  0  0  0  0  0  0
   -0.4125   -0.9355    0.0000 N   0  0  0  0  0  0  0  0  0  0  0  0
    0.0000   -1.6500    0.0000 S   0  0  0  0  0  0  0  0  0  0  0  0
    0.4125   -2.3645    0.0000 O   0  0  0  0  0  0  0  0  0  0  0  0
   -0.7145   -2.0625    0.0000 O   0  0  0  0  0  0  0  0  0  0  0  0
    0.7145   -1.2375    0.0000 C   0  0  0  0  0  0  0  0  0  0  0  0
    0.7145   -0.4125    0.0000 C   0  0  0  0  0  0  0  0  0  0  0  0
    1.4289    0.0000    0.0000 C   0  0  0  0  0  0  0  0  0  0  0  0
    2.1434   -0.4125    0.0000 C   0  0  0  0  0  0  0  0  0  0  0  0
    2.8579    0.0000    0.0000 C   0  0  0  0  0  0  0  0  0  0  0  0
    3.5724   -0.4125    0.0000 C   0  0  0  0  0  0  0  0  0  0  0  0
    3.5724   -1.2375    0.0000 C   0  0  0  0  0  0  0  0  0  0  0  0
    2.8579   -1.6500    0.0000 C   0  0  0  0  0  0  0  0  0  0  0  0
    2.1434   -1.2375    0.0000 C   0  0  0  0  0  0  0  0  0  0  0  0
    1.4289   -1.6500    0.0000 C   0  0  0  0  0  0  0  0  0  0  0  0
   -1.6500   -1.6500    0.0000 C   0  0  0  0  0  0  0  0  0  0  0  0
   -1.2375   -2.3645    0.0000 O   0  0  0  0  0  0  0  0  0  0  0  0
   -2.4750   -1.6500    0.0000 N   0  0  0  0  0  0  0  0  0  0  0  0
   -2.8875   -0.9355    0.0000 C   0  0  0  0  0  0  0  0  0  0  0  0
   -3.7125   -0.9355    0.0000 C   0  0  0  0  0  0  0  0  0  0  0  0
   -4.1250   -1.6500    0.0000 C   0  0  0  0  0  0  0  0  0  0  0  0
   -3.7125   -2.3645    0.0000 C   0  0  0  0  0  0  0  0  0  0  0  0
   -2.8875   -2.3645    0.0000 C   0  0  2  0  0  0  0  0  0  0  0  0
   -2.4750   -3.0789    0.0000 C   0  0  0  0  0  0  0  0  0  0  0  0
   -2.8875   -3.7934    0.0000 O   0  0  0  0  0  0  0  0  0  0  0  0
   -1.6500   -3.0789    0.0000 O   0  0  0  0  0  0  0  0  0  0  0  0
   -1.6500    1.2079    0.0000 C   0  0  0  0  0  0  0  0  0  0  0  0
  1  2  1  0  0  0  0
  2  3  2  0  0  0  0
  2  4  1  0  0  0  0
  4  5  2  0  0  0  0
  5  6  1  0  0  0  0
  6  7  2  0  0  0  0
  7  8  1  0  0  0  0
  8  9  1  0  0  0  0
  9 10  1  0  0  0  0
 10 11  1  1  0  0  0
 11 12  1  0  0  0  0
 12 13  2  0  0  0  0
 12 14  2  0  0  0  0
 12 15  1  0  0  0  0
 15 16  2  0  0  0  0
 16 17  1  0  0  0  0
 17 18  2  0  0  0  0
 18 19  1  0  0  0  0
 19 20  2  0  0  0  0
 20 21  1  0  0  0  0
 21 22  2  0  0  0  0
 22 23  1  0  0  0  0
 18 23  1  0  0  0  0
 23 24  2  0  0  0  0
 15 24  1  0  0  0  0
 10 25  1  0  0  0  0
 25 26  2  0  0  0  0
 25 27  1  0  0  0  0
 27 28  1  0  0  0  0
 28 29  1  0  0  0  0
 29 30  1  0  0  0  0
 30 31  1  0  0  0  0
 31 32  1  0  0  0  0
 27 32  1  0  0  0  0
 32 33  1  1  0  0  0
 33 34  1  0  0  0  0
 33 35  2  0  0  0  0
  8 36  2  0  0  0  0
  4 36  1  0  0  0  0
M  END
> <DRUGBANK_ID>
DB04238

> <DRUG_GROUPS>
experimental

> <GENERIC_NAME>
N-Alpha-(2-Naphthylsulfonyl)-N-(3-Amidino-L-Phenylalaninyl)-D-Pipecolinic Acid

> <CHEMICAL_FORMULA>
C26H28N4O5S

> <MOLECULAR_WEIGHT>
508.589

> <EXACT_MASS>
508.178040716

> <IUPAC_NAME>
(2R)-1-[(2R)-3-(3-carbamimidoylphenyl)-2-(naphthalene-2-sulfonamido)propanoyl]piperidine-2-carboxylic acid

> <IUPAC_TRADITIONAL_NAME>
(2R)-1-[(2R)-3-(3-carbamimidoylphenyl)-2-(naphthalene-2-sulfonamido)propanoyl]piperidine-2-carboxylic acid

> <INCHI_IDENTIFIER>
InChI=1S/C26H28N4O5S/c27-24(28)20-9-5-6-17(14-20)15-22(25(31)30-13-4-3-10-23(30)26(32)33)29-36(34,35)21-12-11-18-7-1-2-8-19(18)16-21/h1-2,5-9,11-12,14,16,22-23,29H,3-4,10,13,15H2,(H3,27,28)(H,32,33)/t22-,23-/m1/s1

> <INCHI_KEY>
InChIKey=GNANSBQAIRJZPA-DHIUTWEWSA-N

> <SMILES>
NC(=N)C1=CC=CC(C[C@@H](NS(=O)(=O)C2=CC=C3C=CC=CC3=C2)C(=O)N2CCCC[C@@H]2C(O)=O)=C1

> <JCHEM_ACCEPTOR_COUNT>
7

> <JCHEM_DONOR_COUNT>
4

> <JCHEM_ACIDIC_PKA>
3.31

> <JCHEM_BASIC_PKA>
11.47

> <JCHEM_PHYSIOLOGICAL_CHARGE>
0

> <ALOGPS_LOGP>
0.9

> <JCHEM_LOGP>
0.95

> <ALOGPS_LOGS>
-4.6

> <JCHEM_POLARIZABILITY>
52.28

> <JCHEM_POLAR_SURFACE_AREA>
153.65

> <JCHEM_REFRACTIVITY>
146.02

> <JCHEM_ROTATABLE_BOND_COUNT>
7

> <ALOGPS_SOLUBILITY>
1.37e-02 g/l __ 

$$$$
