
  Mrv0541 02231217342D          

 55 59  0  0  1  0            999 V2000
   -7.8592   -3.7125    0.0000 C   0  0  0  0  0  0  0  0  0  0  0  0
   -7.8592   -2.8875    0.0000 C   0  0  0  0  0  0  0  0  0  0  0  0
   -8.5737   -2.4750    0.0000 O   0  0  0  0  0  0  0  0  0  0  0  0
   -7.1447   -2.4750    0.0000 N   0  0  0  0  0  0  0  0  0  0  0  0
   -7.1447   -1.6500    0.0000 C   0  0  1  0  0  0  0  0  0  0  0  0
   -7.8592   -1.2375    0.0000 C   0  0  2  0  0  0  0  0  0  0  0  0
   -8.5737   -1.6500    0.0000 O   0  0  0  0  0  0  0  0  0  0  0  0
   -7.8592   -0.4125    0.0000 C   0  0  1  0  0  0  0  0  0  0  0  0
   -8.5737    0.0000    0.0000 O   0  0  0  0  0  0  0  0  0  0  0  0
   -7.1447    0.0000    0.0000 C   0  0  2  0  0  0  0  0  0  0  0  0
   -7.1447    0.8250    0.0000 C   0  0  0  0  0  0  0  0  0  0  0  0
   -6.4302    1.2375    0.0000 O   0  0  0  0  0  0  0  0  0  0  0  0
   -6.4302   -0.4125    0.0000 O   0  0  0  0  0  0  0  0  0  0  0  0
   -6.4302   -1.2375    0.0000 C   0  0  1  0  0  0  0  0  0  0  0  0
   -5.7158   -1.6500    0.0000 O   0  0  0  0  0  0  0  0  0  0  0  0
   -5.0013   -1.2375    0.0000 C   0  0  2  0  0  0  0  0  0  0  0  0
   -4.2868   -1.6500    0.0000 C   0  0  2  0  0  0  0  0  0  0  0  0
   -4.2868   -2.4750    0.0000 C   0  0  0  0  0  0  0  0  0  0  0  0
   -3.5724   -2.8875    0.0000 O   0  0  0  0  0  0  0  0  0  0  0  0
   -3.5724   -1.2375    0.0000 O   0  0  0  0  0  0  0  0  0  0  0  0
   -3.5724   -0.4125    0.0000 C   0  0  1  0  0  0  0  0  0  0  0  0
   -2.8579    0.0000    0.0000 O   0  0  0  0  0  0  0  0  0  0  0  0
   -2.1434   -0.4125    0.0000 C   0  0  2  0  0  0  0  0  0  0  0  0
   -1.4289    0.0000    0.0000 C   0  0  2  0  0  0  0  0  0  0  0  0
   -1.4289    0.8250    0.0000 C   0  0  0  0  0  0  0  0  0  0  0  0
   -0.7145    1.2375    0.0000 O   0  0  0  0  0  0  0  0  0  0  0  0
   -0.7145   -0.4125    0.0000 O   0  0  0  0  0  0  0  0  0  0  0  0
   -0.7145   -1.2375    0.0000 C   0  0  1  0  0  0  0  0  0  0  0  0
    0.0000   -1.6500    0.0000 O   0  0  0  0  0  0  0  0  0  0  0  0
    0.7145   -1.2375    0.0000 C   0  0  0  0  0  0  0  0  0  0  0  0
    0.7145   -0.4125    0.0000 C   0  0  0  0  0  0  0  0  0  0  0  0
    1.4289    0.0000    0.0000 C   0  0  0  0  0  0  0  0  0  0  0  0
    2.1434   -0.4125    0.0000 C   0  0  0  0  0  0  0  0  0  0  0  0
    2.8579    0.0000    0.0000 C   0  0  0  0  0  0  0  0  0  0  0  0
    2.8579    0.8250    0.0000 C   0  0  0  0  0  0  0  0  0  0  0  0
    3.5724   -0.4125    0.0000 C   0  0  0  0  0  0  0  0  0  0  0  0
    3.5724   -1.2375    0.0000 C   0  0  0  0  0  0  0  0  0  0  0  0
    4.2868   -1.6500    0.0000 O   0  0  0  0  0  0  0  0  0  0  0  0
    2.8579   -1.6500    0.0000 O   0  0  0  0  0  0  0  0  0  0  0  0
    2.1434   -1.2375    0.0000 C   0  0  0  0  0  0  0  0  0  0  0  0
    1.4289   -1.6500    0.0000 C   0  0  0  0  0  0  0  0  0  0  0  0
   -1.4289   -1.6500    0.0000 C   0  0  2  0  0  0  0  0  0  0  0  0
   -1.4289   -2.4750    0.0000 N   0  0  0  0  0  0  0  0  0  0  0  0
   -0.7145   -2.8875    0.0000 C   0  0  0  0  0  0  0  0  0  0  0  0
    0.0000   -2.4750    0.0000 C   0  0  0  0  0  0  0  0  0  0  0  0
   -0.7145   -3.7125    0.0000 O   0  0  0  0  0  0  0  0  0  0  0  0
   -2.1434   -1.2375    0.0000 C   0  0  1  0  0  0  0  0  0  0  0  0
   -2.8579   -1.6500    0.0000 O   0  0  0  0  0  0  0  0  0  0  0  0
   -4.2868    0.0000    0.0000 C   0  0  2  0  0  0  0  0  0  0  0  0
   -4.2868    0.8250    0.0000 N   0  0  0  0  0  0  0  0  0  0  0  0
   -3.5724    1.2375    0.0000 C   0  0  0  0  0  0  0  0  0  0  0  0
   -2.8579    0.8250    0.0000 C   0  0  0  0  0  0  0  0  0  0  0  0
   -3.5724    2.0625    0.0000 O   0  0  0  0  0  0  0  0  0  0  0  0
   -5.0013   -0.4125    0.0000 C   0  0  1  0  0  0  0  0  0  0  0  0
   -5.7158    0.0000    0.0000 O   0  0  0  0  0  0  0  0  0  0  0  0
  1  2  1  0  0  0  0
  2  3  2  0  0  0  0
  2  4  1  0  0  0  0
  5  4  1  1  0  0  0
  5  6  1  0  0  0  0
  6  7  1  6  0  0  0
  6  8  1  0  0  0  0
  8  9  1  1  0  0  0
  8 10  1  0  0  0  0
 10 11  1  6  0  0  0
 11 12  1  0  0  0  0
 10 13  1  0  0  0  0
 13 14  1  0  0  0  0
  5 14  1  0  0  0  0
 14 15  1  1  0  0  0
 16 15  1  1  0  0  0
 16 17  1  0  0  0  0
 17 18  1  1  0  0  0
 18 19  1  0  0  0  0
 17 20  1  0  0  0  0
 20 21  1  0  0  0  0
 21 22  1  6  0  0  0
 23 22  1  6  0  0  0
 23 24  1  0  0  0  0
 24 25  1  6  0  0  0
 25 26  1  0  0  0  0
 24 27  1  0  0  0  0
 27 28  1  0  0  0  0
 28 29  1  1  0  0  0
 29 30  1  0  0  0  0
 30 31  2  0  0  0  0
 31 32  1  0  0  0  0
 32 33  2  0  0  0  0
 33 34  1  0  0  0  0
 34 35  1  0  0  0  0
 34 36  2  0  0  0  0
 36 37  1  0  0  0  0
 37 38  2  0  0  0  0
 37 39  1  0  0  0  0
 39 40  1  0  0  0  0
 33 40  1  0  0  0  0
 40 41  2  0  0  0  0
 30 41  1  0  0  0  0
 28 42  1  0  0  0  0
 42 43  1  6  0  0  0
 43 44  1  0  0  0  0
 44 45  1  0  0  0  0
 44 46  2  0  0  0  0
 42 47  1  0  0  0  0
 23 47  1  0  0  0  0
 47 48  1  1  0  0  0
 21 49  1  0  0  0  0
 49 50  1  1  0  0  0
 50 51  1  0  0  0  0
 51 52  1  0  0  0  0
 51 53  2  0  0  0  0
 49 54  1  0  0  0  0
 16 54  1  0  0  0  0
 54 55  1  6  0  0  0
M  END
> <DRUGBANK_ID>
DB04268

> <DRUG_GROUPS>
experimental

> <GENERIC_NAME>
Methylumbelliferyl Chitotriose

> <CHEMICAL_FORMULA>
C34H47N3O18

> <MOLECULAR_WEIGHT>
785.7463

> <EXACT_MASS>
785.285461715

> <IUPAC_NAME>
N-[(2S,3S,4S,5R,6S)-2-{[(2S,3S,4R,5R,6S)-5-acetamido-6-{[(2S,3S,4R,5R,6S)-5-acetamido-4-hydroxy-2-(hydroxymethyl)-6-[(4-methyl-2-oxo-2H-chromen-7-yl)oxy]oxan-3-yl]oxy}-4-hydroxy-2-(hydroxymethyl)oxan-3-yl]oxy}-4,5-dihydroxy-6-(hydroxymethyl)oxan-3-yl]acetamide

> <IUPAC_TRADITIONAL_NAME>
N-[(2S,3S,4S,5R,6S)-2-{[(2S,3S,4R,5R,6S)-5-acetamido-6-{[(2S,3S,4R,5R,6S)-5-acetamido-4-hydroxy-2-(hydroxymethyl)-6-[(4-methyl-2-oxochromen-7-yl)oxy]oxan-3-yl]oxy}-4-hydroxy-2-(hydroxymethyl)oxan-3-yl]oxy}-4,5-dihydroxy-6-(hydroxymethyl)oxan-3-yl]acetamide

> <INCHI_IDENTIFIER>
InChI=1S/C34H47N3O18/c1-12-7-22(44)50-18-8-16(5-6-17(12)18)49-32-24(36-14(3)42)28(47)30(20(10-39)52-32)55-34-25(37-15(4)43)29(48)31(21(11-40)53-34)54-33-23(35-13(2)41)27(46)26(45)19(9-38)51-33/h5-8,19-21,23-34,38-40,45-48H,9-11H2,1-4H3,(H,35,41)(H,36,42)(H,37,43)/t19-,20-,21-,23-,24+,25+,26-,27-,28+,29+,30+,31+,32+,33-,34-/m0/s1

> <INCHI_KEY>
InChIKey=BNYGKUQXGBVTRE-JWEWQUBASA-N

> <SMILES>
CC(=O)N[C@H]1[C@H](O)[C@@H](O)[C@H](CO)O[C@H]1O[C@H]1[C@H](O)[C@@H](NC(C)=O)[C@H](O[C@H]2[C@H](O)[C@@H](NC(C)=O)[C@H](OC3=CC=C4C(C)=CC(=O)OC4=C3)O[C@H]2CO)O[C@H]1CO

> <JCHEM_ACCEPTOR_COUNT>
17

> <JCHEM_DONOR_COUNT>
10

> <JCHEM_ACIDIC_PKA>
11.61

> <JCHEM_BASIC_PKA>
-3

> <JCHEM_PHYSIOLOGICAL_CHARGE>
0

> <ALOGPS_LOGP>
-1

> <JCHEM_LOGP>
-4.9

> <ALOGPS_LOGS>
-2

> <JCHEM_POLARIZABILITY>
77.32

> <JCHEM_POLAR_SURFACE_AREA>
310.59

> <JCHEM_REFRACTIVITY>
178.09

> <JCHEM_ROTATABLE_BOND_COUNT>
12

> <ALOGPS_SOLUBILITY>
8.29e+00 g/l __ 

$$$$
