
  Mrv0541 02231217282D          

 48 52  0  0  1  0            999 V2000
   -3.5724    0.4125    0.0000 N   0  0  0  0  0  0  0  0  0  0  0  0
   -2.8579    0.8250    0.0000 C   0  0  0  0  0  0  0  0  0  0  0  0
   -2.1434    0.4125    0.0000 N   0  0  0  0  0  0  0  0  0  0  0  0
   -1.4289    0.8250    0.0000 C   0  0  0  0  0  0  0  0  0  0  0  0
   -1.4289    1.6500    0.0000 C   0  0  0  0  0  0  0  0  0  0  0  0
   -0.7145    2.0625    0.0000 N   0  0  0  0  0  0  0  0  0  0  0  0
    0.0000    1.6500    0.0000 C   0  0  0  0  0  0  0  0  0  0  0  0
    0.0000    0.8250    0.0000 C   0  0  0  0  0  0  0  0  0  0  0  0
   -0.7145    0.4125    0.0000 N   0  0  0  0  0  0  0  0  0  0  0  0
    0.7145    2.0625    0.0000 C   0  0  0  0  0  0  0  0  0  0  0  0
    1.4289    1.6500    0.0000 O   0  0  0  0  0  0  0  0  0  0  0  0
    2.1434    2.0625    0.0000 P   0  0  2  0  0  0  0  0  0  0  0  0
    2.5559    1.3480    0.0000 O   0  0  0  0  0  0  0  0  0  0  0  0
    1.7309    2.7770    0.0000 O   0  0  0  0  0  0  0  0  0  0  0  0
    2.8579    2.4750    0.0000 O   0  0  0  0  0  0  0  0  0  0  0  0
    3.5724    2.0625    0.0000 P   0  0  1  0  0  0  0  0  0  0  0  0
    3.1599    1.3480    0.0000 O   0  0  0  0  0  0  0  0  0  0  0  0
    3.9849    2.7770    0.0000 O   0  0  0  0  0  0  0  0  0  0  0  0
    4.2868    1.6500    0.0000 O   0  0  0  0  0  0  0  0  0  0  0  0
    5.0013    2.0625    0.0000 P   0  0  2  0  0  0  0  0  0  0  0  0
    5.4138    1.3480    0.0000 O   0  0  0  0  0  0  0  0  0  0  0  0
    4.5888    2.7770    0.0000 O   0  0  0  0  0  0  0  0  0  0  0  0
    5.7158    2.4750    0.0000 O   0  0  0  0  0  0  0  0  0  0  0  0
    6.4302    2.0625    0.0000 P   0  0  1  0  0  0  0  0  0  0  0  0
    6.0177    1.3480    0.0000 O   0  0  0  0  0  0  0  0  0  0  0  0
    6.8427    2.7770    0.0000 O   0  0  0  0  0  0  0  0  0  0  0  0
    7.1447    1.6500    0.0000 O   0  0  0  0  0  0  0  0  0  0  0  0
    7.8592    2.0625    0.0000 C   0  0  0  0  0  0  0  0  0  0  0  0
    8.5737    1.6500    0.0000 C   0  0  2  0  0  0  0  0  0  0  0  0
    9.3273    1.9856    0.0000 O   0  0  0  0  0  0  0  0  0  0  0  0
    9.8794    1.3725    0.0000 C   0  0  2  0  0  0  0  0  0  0  0  0
    9.4669    0.6580    0.0000 C   0  0  2  0  0  0  0  0  0  0  0  0
    9.8024   -0.0957    0.0000 O   0  0  0  0  0  0  0  0  0  0  0  0
    8.6599    0.8295    0.0000 C   0  0  1  0  0  0  0  0  0  0  0  0
    8.0468    0.2775    0.0000 O   0  0  0  0  0  0  0  0  0  0  0  0
   10.6998    1.4587    0.0000 N   0  0  0  0  0  0  0  0  0  0  0  0
   11.2519    0.8456    0.0000 C   0  0  0  0  0  0  0  0  0  0  0  0
   12.0055    1.1812    0.0000 N   0  0  0  0  0  0  0  0  0  0  0  0
   11.9193    2.0016    0.0000 C   0  0  0  0  0  0  0  0  0  0  0  0
   11.1123    2.1732    0.0000 C   0  0  0  0  0  0  0  0  0  0  0  0
   10.8574    2.9578    0.0000 N   0  0  0  0  0  0  0  0  0  0  0  0
   11.4094    3.5709    0.0000 C   0  0  0  0  0  0  0  0  0  0  0  0
   12.2164    3.3994    0.0000 N   0  0  0  0  0  0  0  0  0  0  0  0
   12.4713    2.6147    0.0000 C   0  0  0  0  0  0  0  0  0  0  0  0
   13.2783    2.4432    0.0000 N   0  0  0  0  0  0  0  0  0  0  0  0
   -2.1434    2.0625    0.0000 C   0  0  0  0  0  0  0  0  0  0  0  0
   -2.1434    2.8875    0.0000 O   0  0  0  0  0  0  0  0  0  0  0  0
   -2.8579    1.6500    0.0000 N   0  0  0  0  0  0  0  0  0  0  0  0
  1  2  1  0  0  0  0
  2  3  2  0  0  0  0
  3  4  1  0  0  0  0
  4  5  2  0  0  0  0
  5  6  1  0  0  0  0
  6  7  2  0  0  0  0
  7  8  1  0  0  0  0
  8  9  1  0  0  0  0
  4  9  1  0  0  0  0
  7 10  1  0  0  0  0
 10 11  1  0  0  0  0
 12 11  1  6  0  0  0
 12 13  1  1  0  0  0
 12 14  2  0  0  0  0
 12 15  1  0  0  0  0
 16 15  1  1  0  0  0
 16 17  1  6  0  0  0
 16 18  2  0  0  0  0
 16 19  1  0  0  0  0
 20 19  1  6  0  0  0
 20 21  1  1  0  0  0
 20 22  2  0  0  0  0
 20 23  1  0  0  0  0
 24 23  1  1  0  0  0
 24 25  1  6  0  0  0
 24 26  2  0  0  0  0
 24 27  1  0  0  0  0
 27 28  1  0  0  0  0
 29 28  1  6  0  0  0
 29 30  1  0  0  0  0
 30 31  1  0  0  0  0
 31 32  1  0  0  0  0
 32 33  1  6  0  0  0
 32 34  1  0  0  0  0
 29 34  1  0  0  0  0
 34 35  1  1  0  0  0
 31 36  1  1  0  0  0
 36 37  1  0  0  0  0
 37 38  2  0  0  0  0
 38 39  1  0  0  0  0
 39 40  2  0  0  0  0
 36 40  1  0  0  0  0
 40 41  1  0  0  0  0
 41 42  2  0  0  0  0
 42 43  1  0  0  0  0
 43 44  2  0  0  0  0
 39 44  1  0  0  0  0
 44 45  1  0  0  0  0
  5 46  1  0  0  0  0
 46 47  2  0  0  0  0
 46 48  1  0  0  0  0
  2 48  1  0  0  0  0
M  END
> <DRUGBANK_ID>
DB04158

> <DRUG_GROUPS>
experimental

> <GENERIC_NAME>
6-(Adenosine Tetraphosphate-Methyl)-7,8-Dihydropterin

> <CHEMICAL_FORMULA>
C17H24N10O17P4

> <MOLECULAR_WEIGHT>
764.3243

> <EXACT_MASS>
764.02713544

> <IUPAC_NAME>
[(2-amino-4-oxo-3,4,7,8-tetrahydropteridin-6-yl)methoxy]({[({[({[(2S,3R,4R,5R)-5-(6-amino-9H-purin-9-yl)-3,4-dihydroxyoxolan-2-yl]methoxy}(hydroxy)phosphoryl)oxy](hydroxy)phosphoryl}oxy)(hydroxy)phosphoryl]oxy})phosphinic acid

> <IUPAC_TRADITIONAL_NAME>
(2-amino-4-oxo-7,8-dihydro-3H-pteridin-6-yl)methoxy[({[(2S,3R,4R,5R)-5-(6-aminopurin-9-yl)-3,4-dihydroxyoxolan-2-yl]methoxy(hydroxy)phosphoryl}oxy(hydroxy)phosphoryl)oxy(hydroxy)phosphoryl]oxyphosphinic acid

> <INCHI_IDENTIFIER>
InChI=1S/C17H24N10O17P4/c18-12-8-14(22-4-21-12)27(5-23-8)16-11(29)10(28)7(41-16)3-40-46(33,34)43-48(37,38)44-47(35,36)42-45(31,32)39-2-6-1-20-13-9(24-6)15(30)26-17(19)25-13/h4-5,7,10-11,16,28-29H,1-3H2,(H,31,32)(H,33,34)(H,35,36)(H,37,38)(H2,18,21,22)(H4,19,20,25,26,30)/t7-,10-,11+,16+/m0/s1

> <INCHI_KEY>
InChIKey=ZKRKFZJAQKKHKL-MSLFWYFASA-N

> <SMILES>
NC1=NC2=C(N=C(CO[P@](O)(=O)O[P@@](O)(=O)O[P@](O)(=O)O[P@@](O)(=O)OC[C@@H]3O[C@H]([C@H](O)[C@H]3O)N3C=NC4=C3N=CN=C4N)CN2)C(=O)N1

> <JCHEM_ACCEPTOR_COUNT>
20

> <JCHEM_DONOR_COUNT>
10

> <JCHEM_ACIDIC_PKA>
-7

> <JCHEM_BASIC_PKA>
5

> <JCHEM_PHYSIOLOGICAL_CHARGE>
-4

> <ALOGPS_LOGP>
-0.32

> <JCHEM_LOGP>
-8.1

> <ALOGPS_LOGS>
-1.7

> <JCHEM_POLARIZABILITY>
60.02

> <JCHEM_POLAR_SURFACE_AREA>
406.53

> <JCHEM_REFRACTIVITY>
160.77

> <JCHEM_ROTATABLE_BOND_COUNT>
13

> <ALOGPS_SOLUBILITY>
1.40e+01 g/l __ 

$$$$
