
  Mrv0541 02231217512D          

 29 32  0  0  1  0            999 V2000
    6.9960   -2.0886    0.0000 C   0  0  0  0  0  0  0  0  0  0  0  0
    7.7104   -2.5011    0.0000 C   0  0  0  0  0  0  0  0  0  0  0  0
    7.7104   -3.3261    0.0000 C   0  0  0  0  0  0  0  0  0  0  0  0
    8.4249   -2.0886    0.0000 C   0  0  0  0  0  0  0  0  0  0  0  0
    9.1394   -2.5011    0.0000 C   0  0  0  0  0  0  0  0  0  0  0  0
    9.8538   -2.0886    0.0000 C   0  0  0  0  0  0  0  0  0  0  0  0
   10.5683   -2.5011    0.0000 C   0  0  1  0  0  0  0  0  0  0  0  0
   10.5683   -3.3261    0.0000 C   0  0  0  0  0  0  0  0  0  0  0  0
   11.2828   -2.0886    0.0000 C   0  0  1  0  0  0  0  0  0  0  0  0
   11.3690   -1.2682    0.0000 C   0  0  0  0  0  0  0  0  0  0  0  0
   12.1760   -1.0966    0.0000 C   0  0  0  0  0  0  0  0  0  0  0  0
   12.5885   -1.8111    0.0000 C   0  0  1  0  0  0  0  0  0  0  0  0
   13.3955   -1.9826    0.0000 C   0  0  2  0  0  0  0  0  0  0  0  0
   13.9475   -1.3695    0.0000 C   0  0  1  0  0  0  0  0  0  0  0  0
   13.6926   -0.5849    0.0000 O   0  0  0  0  0  0  0  0  0  0  0  0
   14.7545   -1.5411    0.0000 C   0  0  0  0  0  0  0  0  0  0  0  0
   15.0094   -2.3257    0.0000 C   0  0  0  0  0  0  0  0  0  0  0  0
   15.8164   -2.4972    0.0000 C   0  0  0  0  0  0  0  0  0  0  0  0
   16.0713   -3.2818    0.0000 C   0  0  1  0  0  0  0  0  0  0  0  0
   16.8783   -3.4534    0.0000 O   0  0  0  0  0  0  0  0  0  0  0  0
   15.5193   -3.8949    0.0000 C   0  0  0  0  0  0  0  0  0  0  0  0
   14.7123   -3.7234    0.0000 C   0  0  0  0  0  0  0  0  0  0  0  0
   14.4574   -2.9388    0.0000 C   0  0  1  0  0  0  0  0  0  0  0  0
   13.9053   -3.5519    0.0000 C   0  0  0  0  0  0  0  0  0  0  0  0
   13.6504   -2.7673    0.0000 C   0  0  1  0  0  0  0  0  0  0  0  0
   13.0984   -3.3803    0.0000 C   0  0  0  0  0  0  0  0  0  0  0  0
   12.2914   -3.2088    0.0000 C   0  0  0  0  0  0  0  0  0  0  0  0
   12.0365   -2.4242    0.0000 C   0  0  2  0  0  0  0  0  0  0  0  0
   11.4234   -2.9762    0.0000 C   0  0  0  0  0  0  0  0  0  0  0  0
  1  2  1  0  0  0  0
  2  3  1  0  0  0  0
  2  4  1  0  0  0  0
  4  5  1  0  0  0  0
  5  6  1  0  0  0  0
  6  7  1  0  0  0  0
  7  8  1  6  0  0  0
  9  7  1  1  0  0  0
  9 10  1  0  0  0  0
 10 11  1  0  0  0  0
 12 11  1  1  0  0  0
 12 13  1  0  0  0  0
 13 14  1  0  0  0  0
 14 15  1  1  0  0  0
 14 16  1  0  0  0  0
 16 17  2  0  0  0  0
 17 18  1  0  0  0  0
 18 19  1  0  0  0  0
 19 20  1  1  0  0  0
 19 21  1  0  0  0  0
 21 22  1  0  0  0  0
 22 23  1  0  0  0  0
 17 23  1  0  0  0  0
 23 24  1  1  0  0  0
 23 25  1  0  0  0  0
 13 25  1  6  0  0  0
 25 26  1  1  0  0  0
 26 27  1  0  0  0  0
 27 28  1  0  0  0  0
  9 28  1  0  0  0  0
 12 28  1  0  0  0  0
 28 29  1  1  0  0  0
M  END
> <DRUGBANK_ID>
DB04706

> <DRUG_GROUPS>
experimental

> <GENERIC_NAME>
(3BETA,7BETA)-CHOLEST-5-ENE-3,7-DIOL

> <CHEMICAL_FORMULA>
C27H46O2

> <MOLECULAR_WEIGHT>
402.6529

> <EXACT_MASS>
402.349780716

> <IUPAC_NAME>
(1S,2R,5S,9R,10S,11S,14R,15R)-2,15-dimethyl-14-[(2R)-6-methylheptan-2-yl]tetracyclo[8.7.0.0^{2,7}.0^{11,15}]heptadec-7-ene-5,9-diol

> <IUPAC_TRADITIONAL_NAME>
7Î²-hydroxycholesterol

> <INCHI_IDENTIFIER>
InChI=1S/C27H46O2/c1-17(2)7-6-8-18(3)21-9-10-22-25-23(12-14-27(21,22)5)26(4)13-11-20(28)15-19(26)16-24(25)29/h16-18,20-25,28-29H,6-15H2,1-5H3/t18-,20+,21-,22+,23+,24+,25+,26+,27-/m1/s1

> <INCHI_KEY>
InChIKey=OYXZMSRRJOYLLO-KGZHIOMZSA-N

> <SMILES>
CC(C)CCC[C@@H](C)[C@H]1CC[C@H]2[C@@H]3[C@@H](O)C=C4C[C@@H](O)CC[C@]4(C)[C@H]3CC[C@]12C

> <JCHEM_ACCEPTOR_COUNT>
2

> <JCHEM_DONOR_COUNT>
2

> <JCHEM_ACIDIC_PKA>
18.2

> <JCHEM_BASIC_PKA>
-0.83

> <JCHEM_PHYSIOLOGICAL_CHARGE>
0

> <ALOGPS_LOGP>
5.61

> <JCHEM_LOGP>
5.96

> <ALOGPS_LOGS>
-5.9

> <JCHEM_POLARIZABILITY>
51.11

> <JCHEM_POLAR_SURFACE_AREA>
40.46

> <JCHEM_REFRACTIVITY>
122.05

> <JCHEM_ROTATABLE_BOND_COUNT>
5

> <ALOGPS_SOLUBILITY>
4.76e-04 g/l __ 

$$$$
