
  Mrv0541 02231217382D          

 17 18  0  0  1  0            999 V2000
    0.7145    6.7661    0.0000 N   0  0  0  0  0  0  0  0  0  0  0  0
    0.7145    5.9411    0.0000 C   0  0  0  0  0  0  0  0  0  0  0  0
    1.4289    5.5286    0.0000 C   0  0  0  0  0  0  0  0  0  0  0  0
    1.4289    4.7036    0.0000 C   0  0  0  0  0  0  0  0  0  0  0  0
    2.1434    4.2911    0.0000 O   0  0  0  0  0  0  0  0  0  0  0  0
    0.7145    4.2911    0.0000 N   0  0  0  0  0  0  0  0  0  0  0  0
    0.0000    4.7036    0.0000 C   0  0  0  0  0  0  0  0  0  0  0  0
    0.0000    5.5286    0.0000 C   0  0  0  0  0  0  0  0  0  0  0  0
    0.7145    3.4661    0.0000 C   0  0  2  0  0  0  0  0  0  0  0  0
    1.3819    2.9812    0.0000 O   0  0  0  0  0  0  0  0  0  0  0  0
    1.1270    2.1965    0.0000 C   0  0  1  0  0  0  0  0  0  0  0  0
    1.6119    1.5291    0.0000 C   0  0  0  0  0  0  0  0  0  0  0  0
    2.4324    1.6153    0.0000 O   0  0  0  0  0  0  0  0  0  0  0  0
    0.3020    2.1965    0.0000 C   0  0  2  0  0  0  0  0  0  0  0  0
   -0.1830    1.5291    0.0000 O   0  0  0  0  0  0  0  0  0  0  0  0
    0.0470    2.9812    0.0000 C   0  0  1  0  0  0  0  0  0  0  0  0
   -0.7376    3.2361    0.0000 O   0  0  0  0  0  0  0  0  0  0  0  0
  1  2  1  0  0  0  0
  2  3  2  0  0  0  0
  3  4  1  0  0  0  0
  4  5  2  0  0  0  0
  4  6  1  0  0  0  0
  6  7  1  0  0  0  0
  7  8  2  0  0  0  0
  2  8  1  0  0  0  0
  9  6  1  6  0  0  0
  9 10  1  0  0  0  0
 10 11  1  0  0  0  0
 11 12  1  1  0  0  0
 12 13  1  0  0  0  0
 11 14  1  0  0  0  0
 14 15  1  6  0  0  0
 14 16  1  0  0  0  0
  9 16  1  0  0  0  0
 16 17  1  1  0  0  0
M  END
> <DRUGBANK_ID>
DB04385

> <DRUG_GROUPS>
experimental

> <GENERIC_NAME>
3-Deazacytidine

> <CHEMICAL_FORMULA>
C10H14N2O5

> <MOLECULAR_WEIGHT>
242.2286

> <EXACT_MASS>
242.090271568

> <IUPAC_NAME>
4-amino-1-[(2R,3R,4R,5S)-3,4-dihydroxy-5-(hydroxymethyl)oxolan-2-yl]-1,2-dihydropyridin-2-one

> <IUPAC_TRADITIONAL_NAME>
3-deazacytidine

> <INCHI_IDENTIFIER>
InChI=1S/C10H14N2O5/c11-5-1-2-12(7(14)3-5)10-9(16)8(15)6(4-13)17-10/h1-3,6,8-10,13,15-16H,4,11H2/t6-,8-,9+,10+/m0/s1

> <INCHI_KEY>
InChIKey=OGADSZTVCUXSOK-BEYHFKMWSA-N

> <SMILES>
NC1=CC(=O)N(C=C1)[C@@H]1O[C@@H](CO)[C@H](O)[C@H]1O

> <JCHEM_ACCEPTOR_COUNT>
6

> <JCHEM_DONOR_COUNT>
4

> <JCHEM_ACIDIC_PKA>
12.55

> <JCHEM_BASIC_PKA>
1.79

> <JCHEM_PHYSIOLOGICAL_CHARGE>
0

> <ALOGPS_LOGP>
-2.1

> <JCHEM_LOGP>
-2.6

> <ALOGPS_LOGS>
-0.07

> <JCHEM_POLARIZABILITY>
23.02

> <JCHEM_POLAR_SURFACE_AREA>
116.25

> <JCHEM_REFRACTIVITY>
58.19

> <JCHEM_ROTATABLE_BOND_COUNT>
2

> <ALOGPS_SOLUBILITY>
2.08e+02 g/l __ 

$$$$
