
  Mrv0541 02231217242D          

 25 25  0  0  1  0            999 V2000
    0.0000   -3.3000    0.0000 C   0  0  0  0  0  0  0  0  0  0  0  0
    0.0000   -2.4750    0.0000 C   0  0  0  0  0  0  0  0  0  0  0  0
   -0.7145   -2.0625    0.0000 N   0  0  0  0  0  0  0  0  0  0  0  0
   -0.7145   -1.2375    0.0000 C   0  0  0  0  0  0  0  0  0  0  0  0
    0.0000   -0.8250    0.0000 C   0  0  0  0  0  0  0  0  0  0  0  0
    0.0000    0.0000    0.0000 C   0  0  0  0  0  0  0  0  0  0  0  0
   -0.7145    0.4125    0.0000 O   0  0  0  0  0  0  0  0  0  0  0  0
   -0.7145    1.2375    0.0000 P   0  0  0  0  0  0  0  0  0  0  0  0
   -0.7145    2.0625    0.0000 O   0  0  0  0  0  0  0  0  0  0  0  0
   -1.5395    1.2375    0.0000 O   0  0  0  0  0  0  0  0  0  0  0  0
    0.1105    1.2375    0.0000 O   0  0  0  0  0  0  0  0  0  0  0  0
    0.7145   -1.2375    0.0000 C   0  0  0  0  0  0  0  0  0  0  0  0
    1.4289   -0.8250    0.0000 C   0  0  0  0  0  0  0  0  0  0  0  0
    2.1434   -1.2375    0.0000 N   0  0  0  0  0  0  0  0  0  0  0  0
    2.8579   -0.8250    0.0000 C   0  0  0  0  0  0  0  0  0  0  0  0
    3.5724   -1.2375    0.0000 C   0  0  0  0  0  0  0  0  0  0  0  0
    4.2868   -0.8250    0.0000 C   0  0  0  0  0  0  0  0  0  0  0  0
    5.0013   -1.2375    0.0000 C   0  0  0  0  0  0  0  0  0  0  0  0
    5.7158   -0.8250    0.0000 C   0  0  1  0  0  0  0  0  0  0  0  0
    5.7158    0.0000    0.0000 N   0  0  0  0  0  0  0  0  0  0  0  0
    6.4302   -1.2375    0.0000 C   0  0  0  0  0  0  0  0  0  0  0  0
    7.1447   -0.8250    0.0000 O   0  0  0  0  0  0  0  0  0  0  0  0
    6.4302   -2.0625    0.0000 O   0  0  0  0  0  0  0  0  0  0  0  0
    0.7145   -2.0625    0.0000 C   0  0  0  0  0  0  0  0  0  0  0  0
    1.4289   -2.4750    0.0000 O   0  0  0  0  0  0  0  0  0  0  0  0
  1  2  1  0  0  0  0
  2  3  2  0  0  0  0
  3  4  1  0  0  0  0
  4  5  2  0  0  0  0
  5  6  1  0  0  0  0
  6  7  1  0  0  0  0
  7  8  1  0  0  0  0
  8  9  1  0  0  0  0
  8 10  1  0  0  0  0
  8 11  2  0  0  0  0
  5 12  1  0  0  0  0
 12 13  1  0  0  0  0
 13 14  1  0  0  0  0
 14 15  1  0  0  0  0
 15 16  1  0  0  0  0
 16 17  1  0  0  0  0
 17 18  1  0  0  0  0
 18 19  1  0  0  0  0
 19 20  1  1  0  0  0
 19 21  1  0  0  0  0
 21 22  1  0  0  0  0
 21 23  2  0  0  0  0
 12 24  2  0  0  0  0
  2 24  1  0  0  0  0
 24 25  1  0  0  0  0
M  END
> <DRUGBANK_ID>
DB04083

> <DRUG_GROUPS>
experimental

> <GENERIC_NAME>
N'-Pyridoxyl-Lysine-5'-Monophosphate

> <CHEMICAL_FORMULA>
C14H24N3O7P

> <MOLECULAR_WEIGHT>
377.33

> <EXACT_MASS>
377.135186649

> <IUPAC_NAME>
(2R)-2-amino-6-[({3-hydroxy-2-methyl-5-[(phosphonooxy)methyl]pyridin-4-yl}methyl)amino]hexanoic acid

> <IUPAC_TRADITIONAL_NAME>
(2R)-2-amino-6-[({3-hydroxy-2-methyl-5-[(phosphonooxy)methyl]pyridin-4-yl}methyl)amino]hexanoic acid

> <INCHI_IDENTIFIER>
InChI=1S/C14H24N3O7P/c1-9-13(18)11(10(6-17-9)8-24-25(21,22)23)7-16-5-3-2-4-12(15)14(19)20/h6,12,16,18H,2-5,7-8,15H2,1H3,(H,19,20)(H2,21,22,23)/t12-/m1/s1

> <INCHI_KEY>
InChIKey=FIXMYVJXXYQYGI-GFCCVEGCSA-N

> <SMILES>
CC1=NC=C(COP(O)(O)=O)C(CNCCCC[C@@H](N)C(O)=O)=C1O

> <JCHEM_ACCEPTOR_COUNT>
9

> <JCHEM_DONOR_COUNT>
6

> <JCHEM_ACIDIC_PKA>
1.58

> <JCHEM_BASIC_PKA>
10.66

> <JCHEM_PHYSIOLOGICAL_CHARGE>
-1

> <ALOGPS_LOGP>
-1.8

> <JCHEM_LOGP>
-7.2

> <ALOGPS_LOGS>
-3

> <JCHEM_POLARIZABILITY>
36.33

> <JCHEM_POLAR_SURFACE_AREA>
175.23

> <JCHEM_REFRACTIVITY>
89.3

> <JCHEM_ROTATABLE_BOND_COUNT>
11

> <ALOGPS_SOLUBILITY>
3.59e-01 g/l __ 

$$$$
