AL3
  Mrv0541 02231217242D          

 23 25  0  0  0  0            999 V2000
   -2.3135   -0.0422    0.0000 C   0  0  0  0  0  0  0  0  0  0  0  0
   -0.3295   -1.6922    0.0000 O   0  0  0  0  0  0  0  0  0  0  0  0
    0.3850   -0.4547    0.0000 C   0  0  0  0  0  0  0  0  0  0  0  0
   -0.3295   -0.8672    0.0000 C   0  0  1  0  0  0  0  0  0  0  0  0
    1.0995    0.7828    0.0000 C   0  0  0  0  0  0  0  0  0  0  0  0
    1.8139    0.3703    0.0000 C   0  0  0  0  0  0  0  0  0  0  0  0
    2.5676    0.7059    0.0000 C   0  0  0  0  0  0  0  0  0  0  0  0
    3.1196    0.0928    0.0000 C   0  0  0  0  0  0  0  0  0  0  0  0
    2.7071   -0.6217    0.0000 C   0  0  0  0  0  0  0  0  0  0  0  0
   -3.9635   -0.0422    0.0000 O   0  0  0  0  0  0  0  0  0  0  0  0
   -3.1385    0.7828    0.0000 O   0  0  0  0  0  0  0  0  0  0  0  0
   -3.1385   -0.8672    0.0000 N   0  0  0  0  0  0  0  0  0  0  0  0
   -3.1385   -0.0422    0.0000 S   0  0  0  0  0  0  0  0  0  0  0  0
   -1.8286   -0.7096    0.0000 C   0  0  0  0  0  0  0  0  0  0  0  0
   -1.0440   -0.4547    0.0000 C   0  0  0  0  0  0  0  0  0  0  0  0
   -1.0440    0.3703    0.0000 C   0  0  0  0  0  0  0  0  0  0  0  0
   -1.8286    0.6253    0.0000 S   0  0  0  0  0  0  0  0  0  0  0  0
   -0.3295    0.7828    0.0000 S   0  0  0  0  0  0  0  0  0  0  0  0
   -0.8598    1.4148    0.0000 O   0  0  0  0  0  0  0  0  0  0  0  0
    0.2008    1.4148    0.0000 O   0  0  0  0  0  0  0  0  0  0  0  0
    0.3850    0.3703    0.0000 N   0  0  0  0  0  0  0  0  0  0  0  0
    1.9002   -0.4501    0.0000 S   0  0  0  0  0  0  0  0  0  0  0  0
    0.1762   -1.1591    0.0000 H   0  0  0  0  0  0  0  0  0  0  0  0
  1 13  1  0  0  0  0
  1 14  2  0  0  0  0
  1 17  1  0  0  0  0
  4  2  1  6  0  0  0
  3  4  1  0  0  0  0
  3 21  1  0  0  0  0
  4 15  1  0  0  0  0
  4 23  1  1  0  0  0
  5  6  1  0  0  0  0
  5 21  1  0  0  0  0
  6  7  2  0  0  0  0
  6 22  1  0  0  0  0
  7  8  1  0  0  0  0
  8  9  2  0  0  0  0
  9 22  1  0  0  0  0
 10 13  2  0  0  0  0
 11 13  2  0  0  0  0
 12 13  1  0  0  0  0
 14 15  1  0  0  0  0
 15 16  2  0  0  0  0
 16 17  1  0  0  0  0
 16 18  1  0  0  0  0
 18 19  2  0  0  0  0
 18 20  2  0  0  0  0
 18 21  1  0  0  0  0
M  END
> <DRUGBANK_ID>
DB04089

> <DRUG_GROUPS>
experimental

> <GENERIC_NAME>
AL5300

> <CHEMICAL_FORMULA>
C11H12N2O5S4

> <MOLECULAR_WEIGHT>
380.483

> <EXACT_MASS>
379.962904264

> <IUPAC_NAME>
(4R)-4-hydroxy-1,1-dioxo-2-(thiophen-2-ylmethyl)-2H,3H,4H-1$l^{6},7,2-thieno[3,2-e][1$l^{6},2]thiazine-6-sulfonamide

> <IUPAC_TRADITIONAL_NAME>
(4R)-4-hydroxy-1,1-dioxo-2-(thiophen-2-ylmethyl)-3H,4H-1$l^{6},7,2-thieno[3,2-e][1$l^{6},2]thiazine-6-sulfonamide

> <INCHI_IDENTIFIER>
InChI=1S/C11H12N2O5S4/c12-21(15,16)10-4-8-9(14)6-13(5-7-2-1-3-19-7)22(17,18)11(8)20-10/h1-4,9,14H,5-6H2,(H2,12,15,16)/t9-/m0/s1

> <INCHI_KEY>
InChIKey=HHPUQNGRNUOYCD-VIFPVBQESA-N

> <SMILES>
[H][C@]1(O)CN(CC2=CC=CS2)S(=O)(=O)C2=C1C=C(S2)S(N)(=O)=O

> <JCHEM_ACCEPTOR_COUNT>
5

> <JCHEM_DONOR_COUNT>
2

> <JCHEM_ACIDIC_PKA>
8.16

> <JCHEM_BASIC_PKA>
-3.6

> <JCHEM_PHYSIOLOGICAL_CHARGE>
0

> <ALOGPS_LOGP>
0.27

> <JCHEM_LOGP>
0.5

> <ALOGPS_LOGS>
-2.6

> <JCHEM_POLARIZABILITY>
35.22

> <JCHEM_POLAR_SURFACE_AREA>
117.77

> <JCHEM_REFRACTIVITY>
81.61

> <JCHEM_ROTATABLE_BOND_COUNT>
3

> <ALOGPS_SOLUBILITY>
9.29e-01 g/l __ 

$$$$
