
  Mrv0541 08221306272D          

 48 51  0  0  1  0            999 V2000
    6.0976    4.6777    0.0000 P   0  0  0  0  0  0  0  0  0  0  0  0
   10.0139    2.9341    0.0000 P   0  0  0  0  0  0  0  0  0  0  0  0
    7.4031    4.0965    0.0000 P   0  0  0  0  0  0  0  0  0  0  0  0
    8.7085    3.5153    0.0000 P   0  0  0  0  0  0  0  0  0  0  0  0
    4.5622    6.7110    0.0000 O   0  0  0  0  0  0  0  0  0  0  0  0
   12.6919    1.8260    0.0000 O   0  0  0  0  0  0  0  0  0  0  0  0
    2.9973    5.2589    0.0000 O   0  0  0  0  0  0  0  0  0  0  0  0
    2.4426    6.9660    0.0000 O   0  0  0  0  0  0  0  0  0  0  0  0
   12.2168    3.9073    0.0000 O   0  0  0  0  0  0  0  0  0  0  0  0
    5.6127    5.3452    0.0000 O   0  0  0  0  0  0  0  0  0  0  0  0
   10.8345    3.0203    0.0000 O   0  0  0  0  0  0  0  0  0  0  0  0
    2.4658    8.0210    0.0000 O   0  0  0  0  0  0  0  0  0  0  0  0
    6.5826    4.0102    0.0000 O   0  0  0  0  0  0  0  0  0  0  0  0
   14.8746    2.9866    0.0000 O   0  0  0  0  0  0  0  0  0  0  0  0
    9.1934    2.8478    0.0000 O   0  0  0  0  0  0  0  0  0  0  0  0
    6.7651    5.1626    0.0000 O   0  0  0  0  0  0  0  0  0  0  0  0
    5.4302    4.1927    0.0000 O   0  0  0  0  0  0  0  0  0  0  0  0
   10.1002    2.1135    0.0000 O   0  0  0  0  0  0  0  0  0  0  0  0
    3.8947   10.4960    0.0000 O   0  0  0  0  0  0  0  0  0  0  0  0
    9.9277    3.7546    0.0000 O   0  0  0  0  0  0  0  0  0  0  0  0
    8.2235    4.1828    0.0000 O   0  0  0  0  0  0  0  0  0  0  0  0
    7.4893    3.2760    0.0000 O   0  0  0  0  0  0  0  0  0  0  0  0
    9.3759    4.0002    0.0000 O   0  0  0  0  0  0  0  0  0  0  0  0
    7.3168    4.9170    0.0000 O   0  0  0  0  0  0  0  0  0  0  0  0
    8.0410    3.0304    0.0000 O   0  0  0  0  0  0  0  0  0  0  0  0
    3.8947    8.0210    0.0000 N   0  0  0  0  0  0  0  0  0  0  0  0
   14.1601    1.7490    0.0000 N   0  0  0  0  0  0  0  0  0  0  0  0
    3.1803    9.2585    0.0000 N   0  0  0  0  0  0  0  0  0  0  0  0
   15.5890    1.7490    0.0000 N   0  0  0  0  0  0  0  0  0  0  0  0
   16.3035    0.5115    0.0000 N   0  0  0  0  0  0  0  0  0  0  0  0
    3.4822    5.9264    0.0000 C   0  0  1  0  0  0  0  0  0  0  0  0
    3.2273    6.7110    0.0000 C   0  0  2  0  0  0  0  0  0  0  0  0
    4.3073    5.9264    0.0000 C   0  0  1  0  0  0  0  0  0  0  0  0
    3.8947    7.1960    0.0000 C   0  0  1  0  0  0  0  0  0  0  0  0
   12.5524    3.1535    0.0000 C   0  0  2  0  0  0  0  0  0  0  0  0
   12.1399    2.4391    0.0000 C   0  0  0  0  0  0  0  0  0  0  0  0
   13.3594    2.9820    0.0000 C   0  0  0  0  0  0  0  0  0  0  0  0
   13.4456    2.1615    0.0000 C   0  0  1  0  0  0  0  0  0  0  0  0
    4.7922    5.2589    0.0000 C   0  0  0  0  0  0  0  0  0  0  0  0
   11.3193    2.3529    0.0000 C   0  0  0  0  0  0  0  0  0  0  0  0
    3.1803    8.4335    0.0000 C   0  0  0  0  0  0  0  0  0  0  0  0
    4.6092    8.4335    0.0000 C   0  0  0  0  0  0  0  0  0  0  0  0
   14.1601    0.9240    0.0000 C   0  0  0  0  0  0  0  0  0  0  0  0
   14.8746    2.1615    0.0000 C   0  0  0  0  0  0  0  0  0  0  0  0
    4.6092    9.2585    0.0000 C   0  0  0  0  0  0  0  0  0  0  0  0
    3.8947    9.6710    0.0000 C   0  0  0  0  0  0  0  0  0  0  0  0
   14.8746    0.5115    0.0000 C   0  0  0  0  0  0  0  0  0  0  0  0
   15.5890    0.9240    0.0000 C   0  0  0  0  0  0  0  0  0  0  0  0
  1 10  1  0  0  0  0
  1 13  1  0  0  0  0
  1 16  1  0  0  0  0
  1 17  2  0  0  0  0
  2 11  1  0  0  0  0
  2 15  1  0  0  0  0
  2 18  1  0  0  0  0
  2 20  2  0  0  0  0
  3 13  1  0  0  0  0
  3 21  1  0  0  0  0
  3 22  1  0  0  0  0
  3 24  2  0  0  0  0
  4 15  1  0  0  0  0
  4 21  1  0  0  0  0
  4 23  1  0  0  0  0
  4 25  2  0  0  0  0
  5 33  1  0  0  0  0
  5 34  1  0  0  0  0
  6 36  1  0  0  0  0
  6 38  1  0  0  0  0
 31  7  1  1  0  0  0
 32  8  1  1  0  0  0
 35  9  1  1  0  0  0
 10 39  1  0  0  0  0
 11 40  1  0  0  0  0
 12 41  2  0  0  0  0
 14 44  2  0  0  0  0
 19 46  2  0  0  0  0
 34 26  1  6  0  0  0
 26 41  1  0  0  0  0
 26 42  1  0  0  0  0
 38 27  1  6  0  0  0
 27 43  1  0  0  0  0
 27 44  1  0  0  0  0
 28 41  1  0  0  0  0
 28 46  1  0  0  0  0
 29 44  1  0  0  0  0
 29 48  2  0  0  0  0
 30 48  1  0  0  0  0
 31 32  1  0  0  0  0
 31 33  1  0  0  0  0
 32 34  1  0  0  0  0
 33 39  1  6  0  0  0
 35 36  1  0  0  0  0
 35 37  1  0  0  0  0
 36 40  1  0  0  0  0
 37 38  1  0  0  0  0
 42 45  2  0  0  0  0
 43 47  2  0  0  0  0
 45 46  1  0  0  0  0
 47 48  1  0  0  0  0
M  END
> <DRUGBANK_ID>
DB04983

> <DRUG_GROUPS>
investigational

> <GENERIC_NAME>
Denufosol

> <SALTS>
Denufosol tetrasodium

> <CHEMICAL_FORMULA>
C18H27N5O21P4

> <MOLECULAR_WEIGHT>
773.3229

> <EXACT_MASS>
773.014898999

> <IUPAC_NAME>
{[({[({[(3S,5R)-5-(4-amino-2-oxo-1,2-dihydropyrimidin-1-yl)-3-hydroxyoxolan-2-yl]methoxy}(hydroxy)phosphoryl)oxy](hydroxy)phosphoryl}oxy)(hydroxy)phosphoryl]oxy}({[(2R,3S,4R,5R)-5-(2,4-dioxo-1,2,3,4-tetrahydropyrimidin-1-yl)-3,4-dihydroxyoxolan-2-yl]methoxy})phosphinic acid

> <IUPAC_TRADITIONAL_NAME>
[({[(3S,5R)-5-(4-amino-2-oxopyrimidin-1-yl)-3-hydroxyoxolan-2-yl]methoxy(hydroxy)phosphoryl}oxy(hydroxy)phosphoryl)oxy(hydroxy)phosphoryl]oxy[(2R,3S,4R,5R)-5-(2,4-dioxo-3H-pyrimidin-1-yl)-3,4-dihydroxyoxolan-2-yl]methoxyphosphinic acid

> <INCHI_IDENTIFIER>
InChI=1S/C18H27N5O21P4/c19-11-1-3-22(17(28)20-11)13-5-8(24)9(40-13)6-38-45(30,31)42-47(34,35)44-48(36,37)43-46(32,33)39-7-10-14(26)15(27)16(41-10)23-4-2-12(25)21-18(23)29/h1-4,8-10,13-16,24,26-27H,5-7H2,(H,30,31)(H,32,33)(H,34,35)(H,36,37)(H2,19,20,28)(H,21,25,29)/t8-,9?,10+,13+,14+,15+,16+/m0/s1

> <INCHI_KEY>
InChIKey=FPNPSEMJLALQSA-QWQWSIRXSA-N

> <SMILES>
NC1=NC(=O)N(C=C1)[C@H]1C[C@H](O)C(COP(O)(=O)OP(O)(=O)OP(O)(=O)OP(O)(=O)OC[C@H]2O[C@H]([C@H](O)[C@@H]2O)N2C=CC(=O)NC2=O)O1

> <JCHEM_ACCEPTOR_COUNT>
18

> <JCHEM_DONOR_COUNT>
9

> <JCHEM_ACIDIC_PKA>
0.76

> <JCHEM_BASIC_PKA>
0.13

> <JCHEM_PHYSIOLOGICAL_CHARGE>
-4

> <ALOGPS_LOGP>
0.19

> <JCHEM_LOGP>
-5.4

> <ALOGPS_LOGS>
-1.5

> <JCHEM_POLARIZABILITY>
60.36

> <JCHEM_POLAR_SURFACE_AREA>
382.6

> <JCHEM_REFRACTIVITY>
145.31

> <JCHEM_ROTATABLE_BOND_COUNT>
14

> <ALOGPS_SOLUBILITY>
2.23e+01 g/l __ 

$$$$
