4834
  Mrv0541 02231217572D          

 48 52  0  0  1  0            999 V2000
    4.9849    9.2965    0.0000 Br   0  5  0  0  0  0  0  0  0  0  0  0
    7.4046    5.2326    0.0000 O    0  0  0  0  0  0  0  0  0  0  0  0
    1.9182    1.6787    0.0000 O    0  0  0  0  0  0  0  0  0  0  0  0
    6.0463    5.6764    0.0000 O    0  0  0  0  0  0  0  0  0  0  0  0
    2.6279    0.4385    0.0000 O    0  0  0  0  0  0  0  0  0  0  0  0
    8.4548    3.7844    0.0000 N    0  3  0  0  0  0  0  0  0  0  0  0
    1.9315    3.4043    0.0000 N    0  0  0  0  0  0  0  0  0  0  0  0
    6.3676    3.3719    0.0000 C    0  0  2  0  0  0  0  0  0  0  0  0
    6.3676    4.1969    0.0000 C    0  0  1  0  0  0  0  0  0  0  0  0
    5.6532    2.9594    0.0000 C    0  0  1  0  0  0  0  0  0  0  0  0
    4.9386    3.3719    0.0000 C    0  0  1  0  0  0  0  0  0  0  0  0
    4.1879    2.9538    0.0000 C    0  0  2  0  0  0  0  0  0  0  0  0
    7.6297    3.7844    0.0000 C    0  0  2  0  0  0  0  0  0  0  0  0
    7.1483    4.4483    0.0000 C    0  0  2  0  0  0  0  0  0  0  0  0
    7.1483    3.1205    0.0000 C    0  0  0  0  0  0  0  0  0  0  0  0
    4.1813    2.0945    0.0000 C    0  0  1  0  0  0  0  0  0  0  0  0
    5.6532    4.6094    0.0000 C    0  0  0  0  0  0  0  0  0  0  0  0
    4.9386    4.1969    0.0000 C    0  0  0  0  0  0  0  0  0  0  0  0
    5.6664    2.1002    0.0000 C    0  0  0  0  0  0  0  0  0  0  0  0
    4.9255    1.6647    0.0000 C    0  0  0  0  0  0  0  0  0  0  0  0
    3.4232    3.4191    0.0000 C    0  0  0  0  0  0  0  0  0  0  0  0
    6.3676    5.0220    0.0000 C    0  0  0  0  0  0  0  0  0  0  0  0
    3.4095    1.6409    0.0000 C    0  0  0  0  0  0  0  0  0  0  0  0
    2.6412    2.9836    0.0000 C    0  0  1  0  0  0  0  0  0  0  0  0
    4.1942    3.7787    0.0000 C    0  0  0  0  0  0  0  0  0  0  0  0
    2.6344    2.0884    0.0000 C    0  0  1  0  0  0  0  0  0  0  0  0
    9.1692    3.3719    0.0000 C    0  0  0  0  0  0  0  0  0  0  0  0
    8.4548    4.6094    0.0000 C    0  0  0  0  0  0  0  0  0  0  0  0
    8.0423    3.0700    0.0000 C    0  0  0  0  0  0  0  0  0  0  0  0
    9.8838    3.7844    0.0000 C    0  0  0  0  0  0  0  0  0  0  0  0
    9.1692    5.0220    0.0000 C    0  0  0  0  0  0  0  0  0  0  0  0
    9.8838    4.6094    0.0000 C    0  0  0  0  0  0  0  0  0  0  0  0
    1.9411    4.2293    0.0000 C    0  0  0  0  0  0  0  0  0  0  0  0
    1.2124    3.0001    0.0000 C    0  0  0  0  0  0  0  0  0  0  0  0
    6.8536    5.8466    0.0000 C    0  0  0  0  0  0  0  0  0  0  0  0
    8.4548    2.3555    0.0000 C    0  0  0  0  0  0  0  0  0  0  0  0
    1.2314    4.6500    0.0000 C    0  0  0  0  0  0  0  0  0  0  0  0
    0.5027    3.4208    0.0000 C    0  0  0  0  0  0  0  0  0  0  0  0
    0.5123    4.2458    0.0000 C    0  0  0  0  0  0  0  0  0  0  0  0
    7.1099    6.6308    0.0000 C    0  0  0  0  0  0  0  0  0  0  0  0
    1.9151    0.8537    0.0000 C    0  0  0  0  0  0  0  0  0  0  0  0
    8.0423    1.6410    0.0000 C    0  0  0  0  0  0  0  0  0  0  0  0
    6.5589    7.2449    0.0000 C    0  0  0  0  0  0  0  0  0  0  0  0
    1.1990    0.4439    0.0000 C    0  0  0  0  0  0  0  0  0  0  0  0
    6.4374    2.7156    0.0000 H    0  0  0  0  0  0  0  0  0  0  0  0
    6.2272    2.6339    0.0000 H    0  0  0  0  0  0  0  0  0  0  0  0
    5.5103    3.7019    0.0000 H    0  0  0  0  0  0  0  0  0  0  0  0
    4.1838    1.4345    0.0000 H    0  0  0  0  0  0  0  0  0  0  0  0
 14  2  1  1  0  0  0
  2 35  1  0  0  0  0
 26  3  1  6  0  0  0
  3 41  1  0  0  0  0
  4 35  2  0  0  0  0
  5 41  2  0  0  0  0
 13  6  1  1  0  0  0
  6 27  1  0  0  0  0
  6 28  1  0  0  0  0
  6 29  1  0  0  0  0
 24  7  1  1  0  0  0
  7 33  1  0  0  0  0
  7 34  1  0  0  0  0
  8  9  1  0  0  0  0
  8 10  1  0  0  0  0
  8 15  1  0  0  0  0
  8 45  1  6  0  0  0
  9 14  1  0  0  0  0
  9 17  1  0  0  0  0
  9 22  1  1  0  0  0
 10 11  1  0  0  0  0
 10 19  1  0  0  0  0
 10 46  1  1  0  0  0
 11 12  1  0  0  0  0
 11 18  1  0  0  0  0
 11 47  1  6  0  0  0
 12 16  1  0  0  0  0
 12 21  1  0  0  0  0
 12 25  1  1  0  0  0
 13 14  1  0  0  0  0
 13 15  1  0  0  0  0
 16 20  1  0  0  0  0
 16 23  1  0  0  0  0
 16 48  1  6  0  0  0
 17 18  1  0  0  0  0
 19 20  1  0  0  0  0
 21 24  1  0  0  0  0
 23 26  1  0  0  0  0
 24 26  1  0  0  0  0
 27 30  1  0  0  0  0
 28 31  1  0  0  0  0
 29 36  1  0  0  0  0
 30 32  1  0  0  0  0
 31 32  1  0  0  0  0
 33 37  1  0  0  0  0
 34 38  1  0  0  0  0
 35 40  1  0  0  0  0
 36 42  2  0  0  0  0
 37 39  1  0  0  0  0
 38 39  1  0  0  0  0
 40 43  1  0  0  0  0
 41 44  1  0  0  0  0
M  END
> <DRUGBANK_ID>
DB04834

> <DRUG_GROUPS>
withdrawn

> <GENERIC_NAME>
Rapacuronium

> <SALTS>
Rapacuronium bromide

> <BRANDS>


> <CHEMICAL_FORMULA>
C37H61BrN2O4

> <MOLECULAR_WEIGHT>
677.795

> <EXACT_MASS>
676.381471097

> <IUPAC_NAME>
1-[(1S,2S,4S,5S,7S,10R,11S,13S,14R,15S)-5-(acetyloxy)-2,15-dimethyl-4-(piperidin-1-yl)-14-(propanoyloxy)tetracyclo[8.7.0.0^{2,7}.0^{11,15}]heptadecan-13-yl]-1-(prop-2-en-1-yl)piperidin-1-ium bromide

> <IUPAC_TRADITIONAL_NAME>
1-[(1S,2S,4S,5S,7S,10R,11S,13S,14R,15S)-5-(acetyloxy)-2,15-dimethyl-4-(piperidin-1-yl)-14-(propanoyloxy)tetracyclo[8.7.0.0^{2,7}.0^{11,15}]heptadecan-13-yl]-1-(prop-2-en-1-yl)piperidin-1-ium bromide

> <INCHI_IDENTIFIER>
InChI=1S/C37H61N2O4.BrH/c1-6-20-39(21-12-9-13-22-39)32-24-30-28-15-14-27-23-33(42-26(3)40)31(38-18-10-8-11-19-38)25-37(27,5)29(28)16-17-36(30,4)35(32)43-34(41)7-2;/h6,27-33,35H,1,7-25H2,2-5H3;1H/q+1;/p-1/t27-,28+,29-,30-,31-,32-,33-,35-,36-,37-;/m0./s1

> <INCHI_KEY>
InChIKey=LVQTUXZKLGXYIU-GWSNJHLMSA-M

> <SMILES>
[Br-].[H][C@@]12C[C@@H]([C@H](OC(=O)CC)[C@@]1(C)CC[C@@]1([H])[C@@]2([H])CC[C@@]2([H])C[C@H](OC(C)=O)[C@H](C[C@]12C)N1CCCCC1)[N+]1(CC=C)CCCCC1

> <JCHEM_ACCEPTOR_COUNT>
3

> <JCHEM_DONOR_COUNT>
0

> <JCHEM_BASIC_PKA>
9.65

> <JCHEM_PHYSIOLOGICAL_CHARGE>
2

> <ALOGPS_LOGP>
3.45

> <JCHEM_LOGP>
2.32

> <ALOGPS_LOGS>
-7.6

> <JCHEM_POLARIZABILITY>
72.29

> <JCHEM_POLAR_SURFACE_AREA>
55.84

> <JCHEM_REFRACTIVITY>
183.1

> <JCHEM_ROTATABLE_BOND_COUNT>
9

> <ALOGPS_SOLUBILITY>
1.82e-05 g/l __ 

$$$$
