
  Mrv0541 02231217322D          

  8  7  0  0  0  0            999 V2000
    2.0625   -0.7145    0.0000 C   0  0  0  0  0  0  0  0  0  0  0  0
    1.2375   -0.7145    0.0000 N   0  0  0  0  0  0  0  0  0  0  0  0
    0.8250    0.0000    0.0000 C   0  0  0  0  0  0  0  0  0  0  0  0
    0.0000    0.0000    0.0000 C   0  0  0  0  0  0  0  0  0  0  0  0
   -0.4125   -0.7145    0.0000 C   0  0  0  0  0  0  0  0  0  0  0  0
    1.2375    0.7145    0.0000 C   0  0  0  0  0  0  0  0  0  0  0  0
    0.8250    1.4289    0.0000 O   0  0  0  0  0  0  0  0  0  0  0  0
    2.0625    0.7145    0.0000 O   0  0  0  0  0  0  0  0  0  0  0  0
  1  2  1  0  0  0  0
  2  3  1  0  0  0  0
  3  4  2  0  0  0  0
  4  5  1  0  0  0  0
  3  6  1  0  0  0  0
  6  7  1  0  0  0  0
  6  8  2  0  0  0  0
M  END
> <DRUGBANK_ID>
DB04225

> <DRUG_GROUPS>
experimental

> <GENERIC_NAME>
N-Methyldehydrobutyrine

> <CHEMICAL_FORMULA>
C5H9NO2

> <MOLECULAR_WEIGHT>
115.1305

> <EXACT_MASS>
115.063328537

> <IUPAC_NAME>
(2Z)-2-(methylamino)but-2-enoic acid

> <IUPAC_TRADITIONAL_NAME>
N-methyldehydrobutyrine

> <INCHI_IDENTIFIER>
InChI=1S/C5H9NO2/c1-3-4(6-2)5(7)8/h3,6H,1-2H3,(H,7,8)/b4-3-

> <INCHI_KEY>
InChIKey=XLSUHJCPPCGPHF-ARJAWSKDSA-N

> <SMILES>
CN\C(=C/C)C(O)=O

> <JCHEM_ACCEPTOR_COUNT>
3

> <JCHEM_DONOR_COUNT>
2

> <JCHEM_ACIDIC_PKA>
4.85

> <JCHEM_BASIC_PKA>
2.67

> <JCHEM_PHYSIOLOGICAL_CHARGE>
-1

> <ALOGPS_LOGP>
0.62

> <JCHEM_LOGP>
0.2

> <ALOGPS_LOGS>
-0.65

> <JCHEM_POLARIZABILITY>
11.69

> <JCHEM_POLAR_SURFACE_AREA>
49.33

> <JCHEM_REFRACTIVITY>
31.36

> <JCHEM_ROTATABLE_BOND_COUNT>
2

> <ALOGPS_SOLUBILITY>
2.60e+01 g/l __ 

$$$$
