
  Mrv0541 02231217252D          

 19 18  0  0  1  0            999 V2000
    4.3876    0.9096    0.0000 C    0  0  0  0  0  0  0  0  0  0  0  0
    5.0432    1.4103    0.0000 C    0  0  0  0  0  0  0  0  0  0  0  0
    5.8047    1.0928    0.0000 O    0  0  0  0  0  0  0  0  0  0  0  0
    6.4604    1.5936    0.0000 P    0  0  0  0  0  0  0  0  0  0  0  0
    6.9611    0.9379    0.0000 O    0  0  0  0  0  0  0  0  0  0  0  0
    5.9596    2.2492    0.0000 O    0  0  0  0  0  0  0  0  0  0  0  0
    5.1414    2.1434    0.0000 C    0  0  0  0  0  0  0  0  0  0  0  0
    4.6407    2.7991    0.0000 C    0  0  0  0  0  0  0  0  0  0  0  0
    7.1160    2.0943    0.0000 C    0  0  1  0  0  0  0  0  0  0  0  0
    7.0102    2.9125    0.0000 C    0  0  0  0  0  0  0  0  0  0  0  0
    7.8775    1.7769    0.0000 N    0  0  0  0  0  0  0  0  0  0  0  0
    8.5332    2.2776    0.0000 C    0  0  0  0  0  0  0  0  0  0  0  0
    8.4273    3.0958    0.0000 O    0  0  0  0  0  0  0  0  0  0  0  0
    9.2946    1.9601    0.0000 N    0  0  0  0  0  0  0  0  0  0  0  0
    9.9503    2.4609    0.0000 C    0  0  0  0  0  0  0  0  0  0  0  0
   10.7118    2.1434    0.0000 C    0  0  0  0  0  0  0  0  0  0  0  0
   11.3674    2.6441    0.0000 Cl   0  0  0  0  0  0  0  0  0  0  0  0
    9.4005    1.1419    0.0000 N    0  0  0  0  0  0  0  0  0  0  0  0
   10.1619    0.8245    0.0000 O    0  0  0  0  0  0  0  0  0  0  0  0
  1  2  1  0  0  0  0
  2  3  1  0  0  0  0
  3  4  1  0  0  0  0
  4  5  2  0  0  0  0
  4  6  1  0  0  0  0
  6  7  1  0  0  0  0
  7  8  1  0  0  0  0
  4  9  1  0  0  0  0
  9 10  1  1  0  0  0
  9 11  1  0  0  0  0
 11 12  1  0  0  0  0
 12 13  2  0  0  0  0
 12 14  1  0  0  0  0
 14 15  1  0  0  0  0
 15 16  1  0  0  0  0
 16 17  1  0  0  0  0
 14 18  1  0  0  0  0
 18 19  2  0  0  0  0
M  END
> <DRUGBANK_ID>
DB04106

> <DRUG_GROUPS>
experimental

> <GENERIC_NAME>
Fotemustine

> <SYNONYMS>
Fotemustina; Fotemustinum

> <CHEMICAL_FORMULA>
C9H19ClN3O5P

> <MOLECULAR_WEIGHT>
315.691

> <EXACT_MASS>
315.075084952

> <IUPAC_NAME>
diethyl [(1S)-1-{[N-(2-chloroethyl)-N'-oxohydrazinecarbonyl]amino}ethyl]phosphonate

> <IUPAC_TRADITIONAL_NAME>
diethyl (1S)-1-{[N-(2-chloroethyl)-N'-oxohydrazinecarbonyl]amino}ethylphosphonate

> <INCHI_IDENTIFIER>
InChI=1S/C9H19ClN3O5P/c1-4-17-19(16,18-5-2)8(3)11-9(14)13(12-15)7-6-10/h8H,4-7H2,1-3H3,(H,11,14)/t8-/m0/s1

> <INCHI_KEY>
InChIKey=YAKWPXVTIGTRJH-QMMMGPOBSA-N

> <SMILES>
CCOP(=O)(OCC)[C@@H](C)NC(=O)N(CCCl)N=O

> <JCHEM_ACCEPTOR_COUNT>
3

> <JCHEM_DONOR_COUNT>
1

> <JCHEM_ACIDIC_PKA>
11.06

> <JCHEM_BASIC_PKA>
-5.4

> <JCHEM_PHYSIOLOGICAL_CHARGE>
0

> <ALOGPS_LOGP>
1.23

> <JCHEM_LOGP>
1.28

> <ALOGPS_LOGS>
-1.9

> <JCHEM_POLARIZABILITY>
29.12

> <JCHEM_POLAR_SURFACE_AREA>
97.3

> <JCHEM_REFRACTIVITY>
71.42

> <JCHEM_ROTATABLE_BOND_COUNT>
9

> <ALOGPS_SOLUBILITY>
4.11e+00 g/l __ 

$$$$
