
  Mrv0541 02231217502D          

  7  6  0  0  0  0            999 V2000
    2.4750   -1.4289    0.0000 C   0  0  0  0  0  0  0  0  0  0  0  0
    1.6500   -1.4289    0.0000 O   0  0  0  0  0  0  0  0  0  0  0  0
    1.2375   -0.7145    0.0000 P   0  0  0  0  0  0  0  0  0  0  0  0
    1.9520   -0.3020    0.0000 O   0  0  0  0  0  0  0  0  0  0  0  0
    0.5230   -1.1270    0.0000 S   0  0  0  0  0  0  0  0  0  0  0  0
    0.8250    0.0000    0.0000 O   0  0  0  0  0  0  0  0  0  0  0  0
    0.0000    0.0000    0.0000 C   0  0  0  0  0  0  0  0  0  0  0  0
  1  2  1  0  0  0  0
  2  3  1  0  0  0  0
  3  4  1  0  0  0  0
  3  5  2  0  0  0  0
  3  6  1  0  0  0  0
  6  7  1  0  0  0  0
M  END
> <DRUGBANK_ID>
DB04687

> <DRUG_GROUPS>
experimental

> <GENERIC_NAME>
DIMETHYL THIOPHOSPHATE

> <CHEMICAL_FORMULA>
C2H7O3PS

> <MOLECULAR_WEIGHT>
142.114

> <EXACT_MASS>
141.985351292

> <IUPAC_NAME>
dimethoxy(sulfanylidene)phosphinous acid

> <IUPAC_TRADITIONAL_NAME>
dimethyl thiophosphate

> <INCHI_IDENTIFIER>
InChI=1S/C2H7O3PS/c1-4-6(3,7)5-2/h1-2H3,(H,3,7)

> <INCHI_KEY>
InChIKey=WWJJVKAEQGGYHJ-UHFFFAOYSA-N

> <SMILES>
COP(O)(=S)OC

> <JCHEM_ACCEPTOR_COUNT>
1

> <JCHEM_DONOR_COUNT>
1

> <JCHEM_ACIDIC_PKA>
2.86

> <JCHEM_PHYSIOLOGICAL_CHARGE>
-1

> <ALOGPS_LOGP>
0.32

> <JCHEM_LOGP>
0.63

> <ALOGPS_LOGS>
-1.2

> <JCHEM_POLARIZABILITY>
11.84

> <JCHEM_POLAR_SURFACE_AREA>
38.69

> <JCHEM_REFRACTIVITY>
31.61

> <JCHEM_ROTATABLE_BOND_COUNT>
2

> <ALOGPS_SOLUBILITY>
9.93e+00 g/l __ 

$$$$
