
  Mrv0541 02231217332D          

 33 35  0  0  1  0            999 V2000
   -4.0002   -0.9968    0.0000 C   0  0  0  0  0  0  0  0  0  0  0  0
   -3.4482   -1.6099    0.0000 C   0  0  0  0  0  0  0  0  0  0  0  0
   -2.6412   -1.4384    0.0000 C   0  0  0  0  0  0  0  0  0  0  0  0
   -2.4697   -2.2454    0.0000 O   0  0  0  0  0  0  0  0  0  0  0  0
   -2.8127   -0.6314    0.0000 C   0  0  0  0  0  0  0  0  0  0  0  0
   -2.1996   -0.0794    0.0000 C   0  0  0  0  0  0  0  0  0  0  0  0
   -1.8342   -1.2669    0.0000 C   0  0  0  0  0  0  0  0  0  0  0  0
   -1.2822   -1.8800    0.0000 C   0  0  0  0  0  0  0  0  0  0  0  0
   -0.4752   -1.7084    0.0000 C   0  0  0  0  0  0  0  0  0  0  0  0
    0.0768   -2.3215    0.0000 C   0  0  0  0  0  0  0  0  0  0  0  0
    0.8838   -2.1500    0.0000 C   0  0  1  0  0  0  0  0  0  0  0  0
    1.4358   -2.7631    0.0000 C   0  0  0  0  0  0  0  0  0  0  0  0
    1.1387   -1.3654    0.0000 C   0  0  1  0  0  0  0  0  0  0  0  0
    0.6538   -0.6979    0.0000 C   0  0  0  0  0  0  0  0  0  0  0  0
    1.1387   -0.0305    0.0000 C   0  0  0  0  0  0  0  0  0  0  0  0
    1.9233   -0.2854    0.0000 C   0  0  2  0  0  0  0  0  0  0  0  0
    2.6378    0.1271    0.0000 C   0  0  0  0  0  0  0  0  0  0  0  0
    3.3523   -0.2854    0.0000 C   0  0  0  0  0  0  0  0  0  0  0  0
    3.3523   -1.1104    0.0000 C   0  0  0  0  0  0  0  0  0  0  0  0
    2.6378   -1.5229    0.0000 C   0  0  0  0  0  0  0  0  0  0  0  0
    1.9233   -1.1104    0.0000 C   0  0  1  0  0  0  0  0  0  0  0  0
    1.8371   -1.9309    0.0000 C   0  0  0  0  0  0  0  0  0  0  0  0
    2.6378    0.9521    0.0000 C   0  0  0  0  0  0  0  0  0  0  0  0
    1.9233    1.3646    0.0000 C   0  0  0  0  0  0  0  0  0  0  0  0
    1.9233    2.1896    0.0000 C   0  0  0  0  0  0  0  0  0  0  0  0
    1.2089    2.6021    0.0000 C   0  0  0  0  0  0  0  0  0  0  0  0
    1.2089    3.4271    0.0000 C   0  0  2  0  0  0  0  0  0  0  0  0
    0.4944    3.8396    0.0000 O   0  0  0  0  0  0  0  0  0  0  0  0
    1.9233    3.8396    0.0000 C   0  0  0  0  0  0  0  0  0  0  0  0
    2.6378    3.4271    0.0000 C   0  0  1  0  0  0  0  0  0  0  0  0
    3.3523    3.8396    0.0000 O   0  0  0  0  0  0  0  0  0  0  0  0
    2.6378    2.6021    0.0000 C   0  0  0  0  0  0  0  0  0  0  0  0
    3.3523    2.1896    0.0000 C   0  0  0  0  0  0  0  0  0  0  0  0
  1  2  1  0  0  0  0
  2  3  1  0  0  0  0
  3  4  1  0  0  0  0
  3  5  1  0  0  0  0
  5  6  1  0  0  0  0
  3  7  1  0  0  0  0
  7  8  2  0  0  0  0
  8  9  1  0  0  0  0
  9 10  2  0  0  0  0
 10 11  1  0  0  0  0
 11 12  1  6  0  0  0
 13 11  1  1  0  0  0
 13 14  1  0  0  0  0
 14 15  1  0  0  0  0
 16 15  1  6  0  0  0
 16 17  1  0  0  0  0
 17 18  1  0  0  0  0
 18 19  1  0  0  0  0
 19 20  1  0  0  0  0
 20 21  1  0  0  0  0
 13 21  1  0  0  0  0
 16 21  1  0  0  0  0
 21 22  1  6  0  0  0
 17 23  2  0  0  0  0
 23 24  1  0  0  0  0
 24 25  2  0  0  0  0
 25 26  1  0  0  0  0
 26 27  1  0  0  0  0
 27 28  1  6  0  0  0
 27 29  1  0  0  0  0
 29 30  1  0  0  0  0
 30 31  1  1  0  0  0
 30 32  1  0  0  0  0
 25 32  1  0  0  0  0
 32 33  2  0  0  0  0
M  END
> <DRUGBANK_ID>
DB04258

> <DRUG_GROUPS>
experimental

> <GENERIC_NAME>
Seocalcitol

> <SYNONYMS>


> <CHEMICAL_FORMULA>
C30H46O3

> <MOLECULAR_WEIGHT>
454.6844

> <EXACT_MASS>
454.344695338

> <IUPAC_NAME>
(1S,3R,5Z)-5-{2-[(1R,3aR,4Z,7aS)-1-[(2R,3E,5E)-7-ethyl-7-hydroxynona-3,5-dien-2-yl]-7a-methyl-octahydro-1H-inden-4-ylidene]ethylidene}-4-methylidenecyclohexane-1,3-diol

> <IUPAC_TRADITIONAL_NAME>
seocalcitol

> <INCHI_IDENTIFIER>
InChI=1S/C30H46O3/c1-6-30(33,7-2)18-9-8-11-21(3)26-15-16-27-23(12-10-17-29(26,27)5)13-14-24-19-25(31)20-28(32)22(24)4/h8-9,11,13-14,18,21,25-28,31-33H,4,6-7,10,12,15-17,19-20H2,1-3,5H3/b11-8+,18-9+,23-13-,24-14-/t21-,25+,26-,27-,28-,29+/m1/s1

> <INCHI_KEY>
InChIKey=LVLLALCJVJNGQQ-ZCPUWASBSA-N

> <SMILES>
CCC(O)(CC)\C=C\C=C\[C@@H](C)[C@H]1CC[C@@H]2\C(CCC[C@@]12C)=C/C=C1/C[C@H](O)C[C@@H](O)C1=C

> <JCHEM_ACCEPTOR_COUNT>
3

> <JCHEM_DONOR_COUNT>
3

> <JCHEM_ACIDIC_PKA>
14.39

> <JCHEM_BASIC_PKA>
-1

> <JCHEM_PHYSIOLOGICAL_CHARGE>
0

> <ALOGPS_LOGP>
6.59

> <JCHEM_LOGP>
5.27

> <ALOGPS_LOGS>
-5.1

> <JCHEM_POLARIZABILITY>
55.61

> <JCHEM_POLAR_SURFACE_AREA>
60.69

> <JCHEM_REFRACTIVITY>
142.26

> <JCHEM_ROTATABLE_BOND_COUNT>
7

> <ALOGPS_SOLUBILITY>
3.82e-03 g/l __ 

$$$$
