
  Mrv0541 02231217432D          

 10 11  0  0  0  0            999 V2000
    1.6436    0.3570    0.0000 C   0  0  0  0  0  0  0  0  0  0  0  0
    0.9807   -0.1341    0.0000 C   0  0  0  0  0  0  0  0  0  0  0  0
    0.2526    0.2537    0.0000 C   0  0  0  0  0  0  0  0  0  0  0  0
    1.1407   -0.9495    0.0000 C   0  0  1  0  0  0  0  0  0  0  0  0
    0.5004   -1.3997    0.0000 C   0  0  0  0  0  0  0  0  0  0  0  0
    0.1351   -2.0602    0.0000 C   0  0  0  0  0  0  0  0  0  0  0  0
    0.9106   -1.6699    0.0000 C   0  0  1  0  0  0  0  0  0  0  0  0
    0.9094   -2.4949    0.0000 C   0  0  0  0  0  0  0  0  0  0  0  0
    1.6411   -2.0402    0.0000 C   0  0  0  0  0  0  0  0  0  0  0  0
    1.9362   -1.4148    0.0000 C   0  0  0  0  0  0  0  0  0  0  0  0
  1  2  1  0  0  0  0
  2  3  1  0  0  0  0
  4  2  1  6  0  0  0
  4  5  1  0  0  0  0
  5  6  1  0  0  0  0
  6  7  1  0  0  0  0
  2  7  1  0  0  0  0
  7  8  1  6  0  0  0
  7  9  1  0  0  0  0
  9 10  1  0  0  0  0
  4 10  1  0  0  0  0
M  END
> <DRUGBANK_ID>
DB04501

> <DRUG_GROUPS>
experimental

> <GENERIC_NAME>
Camphane

> <SYNONYMS>
Bornane; Bornylane

> <CHEMICAL_FORMULA>
C10H18

> <MOLECULAR_WEIGHT>
138.2499

> <EXACT_MASS>
138.140850576

> <IUPAC_NAME>
(1s,4s)-1,7,7-trimethylbicyclo[2.2.1]heptane

> <IUPAC_TRADITIONAL_NAME>
camphane

> <INCHI_IDENTIFIER>
InChI=1S/C10H18/c1-9(2)8-4-6-10(9,3)7-5-8/h8H,4-7H2,1-3H3/t8-,10+

> <INCHI_KEY>
InChIKey=BEWYHVAWEKZDPP-WAAGHKOSSA-N

> <SMILES>
CC1(C)[C@H]2CC[C@]1(C)CC2

> <JCHEM_ACCEPTOR_COUNT>
0

> <JCHEM_DONOR_COUNT>
0

> <JCHEM_PHYSIOLOGICAL_CHARGE>
0

> <ALOGPS_LOGP>
4.55

> <JCHEM_LOGP>
3.22

> <ALOGPS_LOGS>
-4.5

> <JCHEM_POLARIZABILITY>
17.59

> <JCHEM_POLAR_SURFACE_AREA>
0

> <JCHEM_REFRACTIVITY>
43.8

> <JCHEM_ROTATABLE_BOND_COUNT>
0

> <ALOGPS_SOLUBILITY>
4.37e-03 g/l __ 

$$$$
