
  Mrv0541 02231217562D          

 22 23  0  0  1  0            999 V2000
    2.8579    0.0000    0.0000 N   0  0  0  0  0  0  0  0  0  0  0  0
    2.1434   -0.4125    0.0000 C   0  0  0  0  0  0  0  0  0  0  0  0
    2.1434   -1.2375    0.0000 C   0  0  1  0  0  0  0  0  0  0  0  0
    1.4289   -1.6500    0.0000 O   0  0  0  0  0  0  0  0  0  0  0  0
    1.4289   -2.4750    0.0000 C   0  0  2  0  0  0  0  0  0  0  0  0
    0.7145   -2.8875    0.0000 O   0  0  0  0  0  0  0  0  0  0  0  0
    0.0000   -2.4750    0.0000 C   0  0  2  0  0  0  0  0  0  0  0  0
   -0.7145   -2.8875    0.0000 C   0  0  1  0  0  0  0  0  0  0  0  0
   -0.7145   -3.7125    0.0000 N   0  0  0  0  0  0  0  0  0  0  0  0
   -1.4289   -2.4750    0.0000 C   0  0  0  0  0  0  0  0  0  0  0  0
   -1.4289   -1.6500    0.0000 C   0  0  1  0  0  0  0  0  0  0  0  0
   -2.1434   -1.2375    0.0000 N   0  0  0  0  0  0  0  0  0  0  0  0
   -0.7145   -1.2375    0.0000 C   0  0  2  0  0  0  0  0  0  0  0  0
   -0.7145   -0.4125    0.0000 O   0  0  0  0  0  0  0  0  0  0  0  0
    0.0000   -1.6500    0.0000 C   0  0  1  0  0  0  0  0  0  0  0  0
    0.7145   -1.2375    0.0000 O   0  0  0  0  0  0  0  0  0  0  0  0
    2.1434   -2.8875    0.0000 C   0  0  2  0  0  0  0  0  0  0  0  0
    2.1434   -3.7125    0.0000 N   0  0  0  0  0  0  0  0  0  0  0  0
    2.8579   -2.4750    0.0000 C   0  0  1  0  0  0  0  0  0  0  0  0
    3.5724   -2.8875    0.0000 O   0  0  0  0  0  0  0  0  0  0  0  0
    2.8579   -1.6500    0.0000 C   0  0  2  0  0  0  0  0  0  0  0  0
    3.5724   -1.2375    0.0000 O   0  0  0  0  0  0  0  0  0  0  0  0
  1  2  1  0  0  0  0
  3  2  1  6  0  0  0
  3  4  1  0  0  0  0
  4  5  1  0  0  0  0
  5  6  1  1  0  0  0
  7  6  1  6  0  0  0
  7  8  1  0  0  0  0
  8  9  1  1  0  0  0
  8 10  1  0  0  0  0
 10 11  1  0  0  0  0
 11 12  1  1  0  0  0
 11 13  1  0  0  0  0
 13 14  1  6  0  0  0
 13 15  1  0  0  0  0
  7 15  1  0  0  0  0
 15 16  1  1  0  0  0
  5 17  1  0  0  0  0
 17 18  1  1  0  0  0
 17 19  1  0  0  0  0
 19 20  1  6  0  0  0
 19 21  1  0  0  0  0
  3 21  1  0  0  0  0
 21 22  1  1  0  0  0
M  END
> <DRUGBANK_ID>
DB04808

> <DRUG_GROUPS>
experimental

> <GENERIC_NAME>
Neamine

> <SYNONYMS>


> <CHEMICAL_FORMULA>
C12H26N4O6

> <MOLECULAR_WEIGHT>
322.358

> <EXACT_MASS>
322.185234584

> <IUPAC_NAME>
(2R,3S,4R,5R,6R)-5-amino-2-(aminomethyl)-6-{[(1R,2R,3S,4R,6S)-4,6-diamino-2,3-dihydroxycyclohexyl]oxy}oxane-3,4-diol

> <IUPAC_TRADITIONAL_NAME>
neamine

> <INCHI_IDENTIFIER>
InChI=1S/C12H26N4O6/c13-2-5-8(18)9(19)6(16)12(21-5)22-11-4(15)1-3(14)7(17)10(11)20/h3-12,17-20H,1-2,13-16H2/t3-,4+,5-,6-,7+,8-,9-,10-,11-,12-/m1/s1

> <INCHI_KEY>
InChIKey=SYJXFKPQNSDJLI-HKEUSBCWSA-N

> <SMILES>
NC[C@H]1O[C@H](O[C@@H]2[C@@H](N)C[C@@H](N)[C@H](O)[C@H]2O)[C@H](N)[C@@H](O)[C@@H]1O

> <JCHEM_ACCEPTOR_COUNT>
10

> <JCHEM_DONOR_COUNT>
8

> <JCHEM_ACIDIC_PKA>
12.66

> <JCHEM_BASIC_PKA>
9.67

> <JCHEM_PHYSIOLOGICAL_CHARGE>
4

> <ALOGPS_LOGP>
-2.9

> <JCHEM_LOGP>
-5.3

> <ALOGPS_LOGS>
-0.5

> <JCHEM_POLARIZABILITY>
32.19

> <JCHEM_POLAR_SURFACE_AREA>
203.46

> <JCHEM_REFRACTIVITY>
73.72

> <JCHEM_ROTATABLE_BOND_COUNT>
3

> <ALOGPS_SOLUBILITY>
1.01e+02 g/l __ 

$$$$
