
  Mrv0541 02231217262D          

 61 64  0  0  1  0            999 V2000
  -19.7337    6.8339    0.0000 C   0  0  0  0  0  0  0  0  0  0  0  0
  -18.9943    7.1998    0.0000 N   0  0  0  0  0  0  0  0  0  0  0  0
  -18.9415    8.0231    0.0000 C   0  0  0  0  0  0  0  0  0  0  0  0
  -18.3077    6.7424    0.0000 C   0  0  0  0  0  0  0  0  0  0  0  0
  -17.5683    7.1083    0.0000 C   0  0  0  0  0  0  0  0  0  0  0  0
  -16.8817    6.6509    0.0000 C   0  0  0  0  0  0  0  0  0  0  0  0
  -16.9345    5.8276    0.0000 C   0  0  0  0  0  0  0  0  0  0  0  0
  -17.6739    5.4617    0.0000 C   0  0  0  0  0  0  0  0  0  0  0  0
  -18.3605    5.9191    0.0000 C   0  0  0  0  0  0  0  0  0  0  0  0
  -16.2479    5.3702    0.0000 C   0  0  0  0  0  0  0  0  0  0  0  0
  -16.3007    4.5469    0.0000 C   0  0  0  0  0  0  0  0  0  0  0  0
  -15.6141    4.0895    0.0000 C   0  0  0  0  0  0  0  0  0  0  0  0
  -15.6669    3.2662    0.0000 O   0  0  0  0  0  0  0  0  0  0  0  0
  -14.8747    4.4554    0.0000 S   0  0  0  0  0  0  0  0  0  0  0  0
  -14.1881    3.9980    0.0000 C   0  0  0  0  0  0  0  0  0  0  0  0
  -13.4487    4.3639    0.0000 C   0  0  0  0  0  0  0  0  0  0  0  0
  -12.7621    3.9066    0.0000 N   0  0  0  0  0  0  0  0  0  0  0  0
  -12.0227    4.2725    0.0000 C   0  0  0  0  0  0  0  0  0  0  0  0
  -11.9699    5.0958    0.0000 O   0  0  0  0  0  0  0  0  0  0  0  0
  -11.3361    3.8151    0.0000 C   0  0  0  0  0  0  0  0  0  0  0  0
  -10.5967    4.1810    0.0000 C   0  0  0  0  0  0  0  0  0  0  0  0
   -9.9101    3.7236    0.0000 N   0  0  0  0  0  0  0  0  0  0  0  0
   -9.1707    4.0895    0.0000 C   0  0  0  0  0  0  0  0  0  0  0  0
   -9.1178    4.9128    0.0000 O   0  0  0  0  0  0  0  0  0  0  0  0
   -8.4841    3.6321    0.0000 C   0  0  1  0  0  0  0  0  0  0  0  0
   -8.5369    2.8088    0.0000 O   0  0  0  0  0  0  0  0  0  0  0  0
   -7.7447    3.9980    0.0000 C   0  0  0  0  0  0  0  0  0  0  0  0
   -7.3787    3.2586    0.0000 C   0  0  0  0  0  0  0  0  0  0  0  0
   -8.1106    4.7374    0.0000 C   0  0  0  0  0  0  0  0  0  0  0  0
   -7.0052    4.3639    0.0000 C   0  0  0  0  0  0  0  0  0  0  0  0
   -6.3186    3.9066    0.0000 O   0  0  0  0  0  0  0  0  0  0  0  0
   -5.5792    4.2725    0.0000 P   0  0  2  0  0  0  0  0  0  0  0  0
   -5.2133    3.5331    0.0000 O   0  0  0  0  0  0  0  0  0  0  0  0
   -5.9451    5.0119    0.0000 O   0  0  0  0  0  0  0  0  0  0  0  0
   -4.8398    4.6384    0.0000 O   0  0  0  0  0  0  0  0  0  0  0  0
   -4.1532    4.1810    0.0000 P   0  0  1  0  0  0  0  0  0  0  0  0
   -4.6106    3.4944    0.0000 O   0  0  0  0  0  0  0  0  0  0  0  0
   -3.6958    4.8676    0.0000 O   0  0  0  0  0  0  0  0  0  0  0  0
   -3.4666    3.7236    0.0000 O   0  0  0  0  0  0  0  0  0  0  0  0
   -2.7272    4.0895    0.0000 C   0  0  0  0  0  0  0  0  0  0  0  0
   -2.0406    3.6321    0.0000 C   0  0  2  0  0  0  0  0  0  0  0  0
   -1.2670    3.9187    0.0000 O   0  0  0  0  0  0  0  0  0  0  0  0
   -0.7553    3.2716    0.0000 C   0  0  2  0  0  0  0  0  0  0  0  0
   -1.2127    2.5850    0.0000 C   0  0  2  0  0  0  0  0  0  0  0  0
   -0.9261    1.8114    0.0000 O   0  0  0  0  0  0  0  0  0  0  0  0
   -2.0071    2.8078    0.0000 C   0  0  1  0  0  0  0  0  0  0  0  0
   -2.6543    2.2961    0.0000 O   0  0  0  0  0  0  0  0  0  0  0  0
   -3.4209    2.6008    0.0000 P   0  0  0  0  0  0  0  0  0  0  0  0
   -3.1163    3.3675    0.0000 O   0  0  0  0  0  0  0  0  0  0  0  0
   -3.7256    1.8341    0.0000 O   0  0  0  0  0  0  0  0  0  0  0  0
   -4.1876    2.9054    0.0000 O   0  0  0  0  0  0  0  0  0  0  0  0
    0.0690    3.3051    0.0000 N   0  0  0  0  0  0  0  0  0  0  0  0
    0.5806    2.6579    0.0000 C   0  0  0  0  0  0  0  0  0  0  0  0
    1.3542    2.9445    0.0000 N   0  0  0  0  0  0  0  0  0  0  0  0
    1.3207    3.7689    0.0000 C   0  0  0  0  0  0  0  0  0  0  0  0
    0.5264    3.9917    0.0000 C   0  0  0  0  0  0  0  0  0  0  0  0
    0.3222    4.7910    0.0000 N   0  0  0  0  0  0  0  0  0  0  0  0
    0.9123    5.3675    0.0000 C   0  0  0  0  0  0  0  0  0  0  0  0
    1.7067    5.1447    0.0000 N   0  0  0  0  0  0  0  0  0  0  0  0
    1.9109    4.3454    0.0000 C   0  0  0  0  0  0  0  0  0  0  0  0
    2.7052    4.1225    0.0000 N   0  0  0  0  0  0  0  0  0  0  0  0
  1  2  1  0  0  0  0
  2  3  1  0  0  0  0
  2  4  1  0  0  0  0
  4  5  2  0  0  0  0
  5  6  1  0  0  0  0
  6  7  2  0  0  0  0
  7  8  1  0  0  0  0
  8  9  2  0  0  0  0
  4  9  1  0  0  0  0
  7 10  1  0  0  0  0
 10 11  2  0  0  0  0
 11 12  1  0  0  0  0
 12 13  2  0  0  0  0
 12 14  1  0  0  0  0
 14 15  1  0  0  0  0
 15 16  1  0  0  0  0
 16 17  1  0  0  0  0
 17 18  1  0  0  0  0
 18 19  2  0  0  0  0
 18 20  1  0  0  0  0
 20 21  1  0  0  0  0
 21 22  1  0  0  0  0
 22 23  1  0  0  0  0
 23 24  2  0  0  0  0
 23 25  1  0  0  0  0
 25 26  1  6  0  0  0
 25 27  1  0  0  0  0
 27 28  1  0  0  0  0
 27 29  1  0  0  0  0
 27 30  1  0  0  0  0
 30 31  1  0  0  0  0
 32 31  1  6  0  0  0
 32 33  1  1  0  0  0
 32 34  2  0  0  0  0
 32 35  1  0  0  0  0
 36 35  1  1  0  0  0
 36 37  1  6  0  0  0
 36 38  2  0  0  0  0
 36 39  1  0  0  0  0
 39 40  1  0  0  0  0
 41 40  1  6  0  0  0
 41 42  1  0  0  0  0
 42 43  1  0  0  0  0
 43 44  1  0  0  0  0
 44 45  1  6  0  0  0
 44 46  1  0  0  0  0
 41 46  1  0  0  0  0
 46 47  1  1  0  0  0
 47 48  1  0  0  0  0
 48 49  1  0  0  0  0
 48 50  1  0  0  0  0
 48 51  2  0  0  0  0
 43 52  1  1  0  0  0
 52 53  1  0  0  0  0
 53 54  2  0  0  0  0
 54 55  1  0  0  0  0
 55 56  2  0  0  0  0
 52 56  1  0  0  0  0
 56 57  1  0  0  0  0
 57 58  2  0  0  0  0
 58 59  1  0  0  0  0
 59 60  2  0  0  0  0
 55 60  1  0  0  0  0
 60 61  1  0  0  0  0
M  END
> <DRUGBANK_ID>
DB04117

> <DRUG_GROUPS>
experimental

> <GENERIC_NAME>
4-(N,N-Dimethylamino)Cinnamoyl-Coa

> <CHEMICAL_FORMULA>
C32H47N8O17P3S

> <MOLECULAR_WEIGHT>
940.745

> <EXACT_MASS>
940.199272344

> <IUPAC_NAME>
{[(2S,3R,4R,5R)-5-(6-amino-9H-purin-9-yl)-2-({[({[(3S)-3-({2-[(2-{[(2E)-3-[4-(dimethylamino)phenyl]prop-2-enoyl]sulfanyl}ethyl)carbamoyl]ethyl}carbamoyl)-3-hydroxy-2,2-dimethylpropoxy](hydroxy)phosphoryl}oxy)(hydroxy)phosphoryl]oxy}methyl)-4-hydroxyoxolan-3-yl]oxy}phosphonic acid

> <IUPAC_TRADITIONAL_NAME>
[(2S,3R,4R,5R)-5-(6-aminopurin-9-yl)-2-[({[(3S)-3-({2-[(2-{[(2E)-3-[4-(dimethylamino)phenyl]prop-2-enoyl]sulfanyl}ethyl)carbamoyl]ethyl}carbamoyl)-3-hydroxy-2,2-dimethylpropoxy(hydroxy)phosphoryl]oxy(hydroxy)phosphoryl}oxy)methyl]-4-hydroxyoxolan-3-yl]oxyphosphonic acid

> <INCHI_IDENTIFIER>
InChI=1S/C32H47N8O17P3S/c1-32(2,27(44)30(45)35-12-11-22(41)34-13-14-61-23(42)10-7-19-5-8-20(9-6-19)39(3)4)16-54-60(51,52)57-59(49,50)53-15-21-26(56-58(46,47)48)25(43)31(55-21)40-18-38-24-28(33)36-17-37-29(24)40/h5-10,17-18,21,25-27,31,43-44H,11-16H2,1-4H3,(H,34,41)(H,35,45)(H,49,50)(H,51,52)(H2,33,36,37)(H2,46,47,48)/b10-7+/t21-,25+,26-,27+,31+/m0/s1

> <INCHI_KEY>
InChIKey=WWUPGKDRUIPTRA-OBPDMEEPSA-N

> <SMILES>
O[C@@H](C(C)(C)CO[P@@](=O)(O)O[P@](=O)(O)OC[C@@H]1O[C@H]([C@H](O)[C@H]1OP(O)(O)=O)N1C=NC2=C1N=CN=C2N)C(=O)NCCC(=O)NCCSC(=O)\C=C\C1=CC=C(N(C)C)C=C1

> <JCHEM_ACCEPTOR_COUNT>
18

> <JCHEM_DONOR_COUNT>
9

> <JCHEM_ACIDIC_PKA>
0.83

> <JCHEM_BASIC_PKA>
5.12

> <JCHEM_PHYSIOLOGICAL_CHARGE>
-4

> <ALOGPS_LOGP>
0.37

> <JCHEM_LOGP>
-5.5

> <ALOGPS_LOGS>
-2.6

> <JCHEM_POLARIZABILITY>
88.46

> <JCHEM_POLAR_SURFACE_AREA>
366.87

> <JCHEM_REFRACTIVITY>
217.05

> <JCHEM_ROTATABLE_BOND_COUNT>
23

> <ALOGPS_SOLUBILITY>
2.59e+00 g/l __ 

$$$$
