
  Mrv0541 02231217282D          

  8  8  0  0  0  0            999 V2000
    0.0000    2.4750    0.0000 O   0  0  0  0  0  0  0  0  0  0  0  0
    0.7145    2.0625    0.0000 C   0  0  0  0  0  0  0  0  0  0  0  0
    0.7145    1.2375    0.0000 C   0  0  0  0  0  0  0  0  0  0  0  0
    1.4289    0.8250    0.0000 C   0  0  0  0  0  0  0  0  0  0  0  0
    1.4289    0.0000    0.0000 C   0  0  0  0  0  0  0  0  0  0  0  0
    0.7145   -0.4125    0.0000 C   0  0  0  0  0  0  0  0  0  0  0  0
    0.0000    0.0000    0.0000 N   0  0  0  0  0  0  0  0  0  0  0  0
    0.0000    0.8250    0.0000 C   0  0  0  0  0  0  0  0  0  0  0  0
  1  2  1  0  0  0  0
  2  3  1  0  0  0  0
  3  4  2  0  0  0  0
  4  5  1  0  0  0  0
  5  6  2  0  0  0  0
  6  7  1  0  0  0  0
  7  8  2  0  0  0  0
  3  8  1  0  0  0  0
M  END
> <DRUGBANK_ID>
DB04145

> <DRUG_GROUPS>
experimental

> <GENERIC_NAME>
Pyridin-3-Ylmethanol

> <CHEMICAL_FORMULA>
C6H7NO

> <MOLECULAR_WEIGHT>
109.1259

> <EXACT_MASS>
109.052763851

> <IUPAC_NAME>
pyridin-3-ylmethanol

> <IUPAC_TRADITIONAL_NAME>
pyridin-3-ylmethanol

> <INCHI_IDENTIFIER>
InChI=1S/C6H7NO/c8-5-6-2-1-3-7-4-6/h1-4,8H,5H2

> <INCHI_KEY>
InChIKey=MVQVNTPHUGQQHK-UHFFFAOYSA-N

> <SMILES>
OCC1=CC=CN=C1

> <JCHEM_ACCEPTOR_COUNT>
2

> <JCHEM_DONOR_COUNT>
1

> <JCHEM_ACIDIC_PKA>
14.69

> <JCHEM_BASIC_PKA>
4.73

> <JCHEM_PHYSIOLOGICAL_CHARGE>
0

> <ALOGPS_LOGP>
-0.13

> <JCHEM_LOGP>
-0.012

> <ALOGPS_LOGS>
0.46

> <JCHEM_POLARIZABILITY>
11.23

> <JCHEM_POLAR_SURFACE_AREA>
33.12

> <JCHEM_REFRACTIVITY>
30.72

> <JCHEM_ROTATABLE_BOND_COUNT>
1

> <ALOGPS_SOLUBILITY>
3.12e+02 g/l __ 

$$$$
