TYP
  Mrv0541 02231217442D          

 21 23  0  0  0  0            999 V2000
   -0.0748    0.4300    0.0000 N   0  0  0  0  0  0  0  0  0  0  0  0
   -0.0748   -0.3950    0.0000 C   0  0  2  0  0  0  0  0  0  0  0  0
   -0.7893   -0.8075    0.0000 C   0  0  0  0  0  0  0  0  0  0  0  0
   -0.7893   -1.6325    0.0000 O   0  0  0  0  0  0  0  0  0  0  0  0
    0.6397   -0.8075    0.0000 C   0  0  0  0  0  0  0  0  0  0  0  0
    1.3541   -0.3950    0.0000 C   0  0  0  0  0  0  0  0  0  0  0  0
    1.3541    0.4300    0.0000 C   0  0  0  0  0  0  0  0  0  0  0  0
    2.0686    0.8425    0.0000 C   0  0  0  0  0  0  0  0  0  0  0  0
    2.7831   -0.3950    0.0000 C   0  0  0  0  0  0  0  0  0  0  0  0
    2.0686   -0.8075    0.0000 C   0  0  0  0  0  0  0  0  0  0  0  0
    2.7831    0.4300    0.0000 C   0  0  0  0  0  0  0  0  0  0  0  0
    3.4975    0.8425    0.0000 O   0  0  0  0  0  0  0  0  0  0  0  0
   -1.5038   -0.3950    0.0000 N   0  0  0  0  0  0  0  0  0  0  0  0
   -1.5038    0.4300    0.0000 C   0  0  2  0  0  0  0  0  0  0  0  0
   -0.7893    0.8425    0.0000 C   0  0  0  0  0  0  0  0  0  0  0  0
   -0.7893    1.6675    0.0000 O   0  0  0  0  0  0  0  0  0  0  0  0
   -2.2884    0.6849    0.0000 C   0  0  0  0  0  0  0  0  0  0  0  0
   -2.7733    0.0175    0.0000 C   0  0  0  0  0  0  0  0  0  0  0  0
   -2.2884   -0.6500    0.0000 C   0  0  0  0  0  0  0  0  0  0  0  0
    0.4309   -0.1031    0.0000 H   0  0  0  0  0  0  0  0  0  0  0  0
   -1.5648    1.0107    0.0000 H   0  0  0  0  0  0  0  0  0  0  0  0
  1  2  1  0  0  0  0
  1 15  1  0  0  0  0
  2  3  1  0  0  0  0
  2  5  1  1  0  0  0
  2 20  1  6  0  0  0
  3  4  2  0  0  0  0
  3 13  1  0  0  0  0
  5  6  1  0  0  0  0
  6  7  2  0  0  0  0
  6 10  1  0  0  0  0
  7  8  1  0  0  0  0
  8 11  2  0  0  0  0
  9 10  2  0  0  0  0
  9 11  1  0  0  0  0
 11 12  1  0  0  0  0
 13 14  1  0  0  0  0
 13 19  1  0  0  0  0
 14 15  1  0  0  0  0
 14 17  1  0  0  0  0
 14 21  1  6  0  0  0
 15 16  2  0  0  0  0
 17 18  1  0  0  0  0
 18 19  1  0  0  0  0
M  END
> <DRUGBANK_ID>
DB04520

> <DRUG_GROUPS>
experimental

> <GENERIC_NAME>
(3s,8ar)-3-(4-Hydroxybenzyl)Hexahydropyrrolo[1,2-a]Pyrazine-1,4-Dione

> <CHEMICAL_FORMULA>
C14H16N2O3

> <MOLECULAR_WEIGHT>
260.2884

> <EXACT_MASS>
260.116092388

> <IUPAC_NAME>
(3S,8aS)-3-[(4-hydroxyphenyl)methyl]-octahydropyrrolo[1,2-a]piperazine-1,4-dione

> <IUPAC_TRADITIONAL_NAME>
(3S,8aS)-3-[(4-hydroxyphenyl)methyl]-hexahydropyrrolo[1,2-a]piperazine-1,4-dione

> <INCHI_IDENTIFIER>
InChI=1S/C14H16N2O3/c17-10-5-3-9(4-6-10)8-11-14(19)16-7-1-2-12(16)13(18)15-11/h3-6,11-12,17H,1-2,7-8H2,(H,15,18)/t11-,12-/m0/s1

> <INCHI_KEY>
InChIKey=LSGOTAXPWMCUCK-RYUDHWBXSA-N

> <SMILES>
[H][C@@]12CCCN1C(=O)[C@]([H])(CC1=CC=C(O)C=C1)NC2=O

> <JCHEM_ACCEPTOR_COUNT>
3

> <JCHEM_DONOR_COUNT>
2

> <JCHEM_ACIDIC_PKA>
9.49

> <JCHEM_BASIC_PKA>
-4

> <JCHEM_PHYSIOLOGICAL_CHARGE>
0

> <ALOGPS_LOGP>
0.44

> <JCHEM_LOGP>
0.55

> <ALOGPS_LOGS>
-1.4

> <JCHEM_POLARIZABILITY>
26.77

> <JCHEM_POLAR_SURFACE_AREA>
69.64

> <JCHEM_REFRACTIVITY>
68.88

> <JCHEM_ROTATABLE_BOND_COUNT>
2

> <ALOGPS_SOLUBILITY>
1.12e+01 g/l __ 

$$$$
