CT8
  Mrv0541 02231217502D          

 24 27  0  0  0  0            999 V2000
    2.2964    1.5506    0.0000 Br   0  0  0  0  0  0  0  0  0  0  0  0
    1.5819    1.9631    0.0000 C    0  0  0  0  0  0  0  0  0  0  0  0
    0.8674    1.5506    0.0000 C    0  0  0  0  0  0  0  0  0  0  0  0
    0.1529    1.9631    0.0000 C    0  0  0  0  0  0  0  0  0  0  0  0
    0.1529    2.7881    0.0000 C    0  0  0  0  0  0  0  0  0  0  0  0
    0.8674    3.2006    0.0000 C    0  0  0  0  0  0  0  0  0  0  0  0
    1.5819    2.7881    0.0000 C    0  0  0  0  0  0  0  0  0  0  0  0
   -0.5615    1.5506    0.0000 C    0  0  0  0  0  0  0  0  0  0  0  0
   -0.5615    0.7256    0.0000 C    0  0  0  0  0  0  0  0  0  0  0  0
   -1.2760    0.3131    0.0000 C    0  0  0  0  0  0  0  0  0  0  0  0
   -1.9905    0.7256    0.0000 N    0  3  0  0  0  0  0  0  0  0  0  0
   -2.7751    0.4707    0.0000 N    0  0  0  0  0  0  0  0  0  0  0  0
   -3.2600    1.1381    0.0000 C    0  0  0  0  0  0  0  0  0  0  0  0
   -1.9905    1.5506    0.0000 C    0  0  0  0  0  0  0  0  0  0  0  0
   -1.2760    1.9631    0.0000 N    0  0  0  0  0  0  0  0  0  0  0  0
   -1.2760   -0.5119    0.0000 N    0  0  0  0  0  0  0  0  0  0  0  0
   -0.5615   -0.9244    0.0000 C    0  0  0  0  0  0  0  0  0  0  0  0
   -0.5615   -1.7494    0.0000 C    0  0  0  0  0  0  0  0  0  0  0  0
    0.1529   -2.1619    0.0000 C    0  0  0  0  0  0  0  0  0  0  0  0
    0.1529   -2.9869    0.0000 C    0  0  0  0  0  0  0  0  0  0  0  0
   -0.5615   -3.3994    0.0000 N    0  0  0  0  0  0  0  0  0  0  0  0
   -1.2760   -2.9869    0.0000 C    0  0  0  0  0  0  0  0  0  0  0  0
   -1.2760   -2.1619    0.0000 C    0  0  0  0  0  0  0  0  0  0  0  0
   -2.7751    1.8055    0.0000 N    0  0  0  0  0  0  0  0  0  0  0  0
  1  2  1  0  0  0  0
  2  3  1  0  0  0  0
  2  7  2  0  0  0  0
  3  4  2  0  0  0  0
  4  5  1  0  0  0  0
  4  8  1  0  0  0  0
  5  6  2  0  0  0  0
  6  7  1  0  0  0  0
  8  9  1  0  0  0  0
  8 15  2  0  0  0  0
  9 10  2  0  0  0  0
 10 11  1  0  0  0  0
 10 16  1  0  0  0  0
 11 12  1  0  0  0  0
 11 14  2  0  0  0  0
 12 13  1  0  0  0  0
 13 24  2  0  0  0  0
 14 15  1  0  0  0  0
 14 24  1  0  0  0  0
 16 17  1  0  0  0  0
 17 18  1  0  0  0  0
 18 19  2  0  0  0  0
 18 23  1  0  0  0  0
 19 20  1  0  0  0  0
 20 21  2  0  0  0  0
 21 22  1  0  0  0  0
 22 23  2  0  0  0  0
M  END
> <DRUGBANK_ID>
DB04669

> <DRUG_GROUPS>
experimental

> <GENERIC_NAME>
TRIAZOLOPYRIMIDINE

> <CHEMICAL_FORMULA>
C17H14BrN6

> <MOLECULAR_WEIGHT>
382.237

> <EXACT_MASS>
381.046332125

> <IUPAC_NAME>
5-(3-bromophenyl)-7-[(pyridin-4-ylmethyl)amino]-1H-1,3,4,8000000$l^{5}-[1$l^{5},2,4]triazolo[1,5-a]pyrimidin-8-ylium

> <IUPAC_TRADITIONAL_NAME>
triazolopyrimidine

> <INCHI_IDENTIFIER>
InChI=1S/C17H13BrN6/c18-14-3-1-2-13(8-14)15-9-16(24-17(23-15)21-11-22-24)20-10-12-4-6-19-7-5-12/h1-9,11H,10H2,(H,20,21,22,23)/p+1

> <INCHI_KEY>
InChIKey=YWBFPKPWMSWWEA-UHFFFAOYSA-O

> <SMILES>
BrC1=CC=CC(=C1)C1=NC2=[N+](NC=N2)C(NCC2=CC=NC=C2)=C1

> <JCHEM_ACCEPTOR_COUNT>
4

> <JCHEM_DONOR_COUNT>
2

> <JCHEM_ACIDIC_PKA>
8.77

> <JCHEM_BASIC_PKA>
5.02

> <JCHEM_PHYSIOLOGICAL_CHARGE>
1

> <ALOGPS_LOGP>
0.7

> <JCHEM_LOGP>
0.66

> <ALOGPS_LOGS>
-4.9

> <JCHEM_POLARIZABILITY>
36.25

> <JCHEM_POLAR_SURFACE_AREA>
70.59

> <JCHEM_REFRACTIVITY>
117.91

> <JCHEM_ROTATABLE_BOND_COUNT>
4

> <ALOGPS_SOLUBILITY>
5.29e-03 g/l __ 

$$$$
