
  Mrv0541 02231217492D          

 26 27  0  0  1  0            999 V2000
    3.5724   -1.2375    0.0000 O   0  0  0  0  0  0  0  0  0  0  0  0
    2.8579   -1.6500    0.0000 C   0  0  0  0  0  0  0  0  0  0  0  0
    2.8579   -2.4750    0.0000 C   0  0  1  0  0  0  0  0  0  0  0  0
    2.1434   -2.8875    0.0000 C   0  0  0  0  0  0  0  0  0  0  0  0
    2.1434   -3.7125    0.0000 C   0  0  1  0  0  0  0  0  0  0  0  0
    1.4289   -4.1250    0.0000 S   0  0  0  0  0  0  0  0  0  0  0  0
    0.7145   -3.7125    0.0000 C   0  0  0  0  0  0  0  0  0  0  0  0
    0.0000   -4.1250    0.0000 C   0  0  0  0  0  0  0  0  0  0  0  0
   -0.7145   -3.7125    0.0000 C   0  0  0  0  0  0  0  0  0  0  0  0
   -1.4289   -4.1250    0.0000 C   0  0  0  0  0  0  0  0  0  0  0  0
   -2.1434   -3.7125    0.0000 C   0  0  0  0  0  0  0  0  0  0  0  0
   -2.1434   -2.8875    0.0000 C   0  0  0  0  0  0  0  0  0  0  0  0
   -1.4289   -2.4750    0.0000 C   0  0  0  0  0  0  0  0  0  0  0  0
   -0.7145   -2.8875    0.0000 C   0  0  0  0  0  0  0  0  0  0  0  0
    0.7145   -2.8875    0.0000 N   0  0  0  0  0  0  0  0  0  0  0  0
    1.4289   -2.4750    0.0000 O   0  0  0  0  0  0  0  0  0  0  0  0
    1.4289   -1.6500    0.0000 S   0  0  0  0  0  0  0  0  0  0  0  0
    0.6039   -1.6500    0.0000 O   0  0  0  0  0  0  0  0  0  0  0  0
    1.4289   -0.8250    0.0000 O   0  0  0  0  0  0  0  0  0  0  0  0
    2.2539   -1.6500    0.0000 O   0  0  0  0  0  0  0  0  0  0  0  0
    2.8579   -4.1250    0.0000 C   0  0  2  0  0  0  0  0  0  0  0  0
    2.8579   -4.9500    0.0000 O   0  0  0  0  0  0  0  0  0  0  0  0
    3.5724   -3.7125    0.0000 C   0  0  1  0  0  0  0  0  0  0  0  0
    4.2868   -4.1250    0.0000 O   0  0  0  0  0  0  0  0  0  0  0  0
    3.5724   -2.8875    0.0000 C   0  0  2  0  0  0  0  0  0  0  0  0
    4.2868   -2.4750    0.0000 O   0  0  0  0  0  0  0  0  0  0  0  0
  1  2  1  0  0  0  0
  3  2  1  6  0  0  0
  3  4  1  0  0  0  0
  4  5  1  0  0  0  0
  5  6  1  6  0  0  0
  6  7  1  0  0  0  0
  7  8  1  0  0  0  0
  8  9  1  0  0  0  0
  9 10  2  0  0  0  0
 10 11  1  0  0  0  0
 11 12  2  0  0  0  0
 12 13  1  0  0  0  0
 13 14  2  0  0  0  0
  9 14  1  0  0  0  0
  7 15  2  0  0  0  0
 15 16  1  0  0  0  0
 16 17  1  0  0  0  0
 17 18  1  0  0  0  0
 17 19  2  0  0  0  0
 17 20  2  0  0  0  0
  5 21  1  0  0  0  0
 21 22  1  1  0  0  0
 21 23  1  0  0  0  0
 23 24  1  6  0  0  0
 23 25  1  0  0  0  0
  3 25  1  0  0  0  0
 25 26  1  1  0  0  0
M  END
> <DRUGBANK_ID>
DB04659

> <DRUG_GROUPS>
experimental

> <GENERIC_NAME>
(1S,2S,3R,4S,5S)-2,3,4-TRIHYDROXY-5-(HYDROXYMETHYL)CYCLOHEXYL (1E)-2-PHENYL-N-(SULFOOXY)ETHANIMIDOTHIOATE

> <CHEMICAL_FORMULA>
C15H21NO8S2

> <MOLECULAR_WEIGHT>
407.459

> <EXACT_MASS>
407.070858033

> <IUPAC_NAME>
{[(Z)-(2-phenyl-1-{[(1R,2R,3S,4R,5R)-2,3,4-trihydroxy-5-(hydroxymethyl)cyclohexyl]sulfanyl}ethylidene)amino]oxy}sulfonic acid

> <IUPAC_TRADITIONAL_NAME>
[(Z)-(2-phenyl-1-{[(1R,2R,3S,4R,5R)-2,3,4-trihydroxy-5-(hydroxymethyl)cyclohexyl]sulfanyl}ethylidene)amino]oxysulfonic acid

> <INCHI_IDENTIFIER>
InChI=1S/C15H21NO8S2/c17-8-10-7-11(14(19)15(20)13(10)18)25-12(16-24-26(21,22)23)6-9-4-2-1-3-5-9/h1-5,10-11,13-15,17-20H,6-8H2,(H,21,22,23)/b16-12-/t10-,11-,13-,14+,15+/m1/s1

> <INCHI_KEY>
InChIKey=LZDZCEOFJWRJIA-GGASBGQWSA-N

> <SMILES>
OC[C@H]1C[C@@H](S\C(=N/OS(O)(=O)=O)CC2=CC=CC=C2)[C@H](O)[C@@H](O)[C@@H]1O

> <JCHEM_ACCEPTOR_COUNT>
8

> <JCHEM_DONOR_COUNT>
5

> <JCHEM_ACIDIC_PKA>
-3.4

> <JCHEM_BASIC_PKA>
0.072

> <JCHEM_PHYSIOLOGICAL_CHARGE>
-1

> <ALOGPS_LOGP>
-1

> <JCHEM_LOGP>
-2

> <ALOGPS_LOGS>
-2.3

> <JCHEM_POLARIZABILITY>
38.02

> <JCHEM_POLAR_SURFACE_AREA>
156.88

> <JCHEM_REFRACTIVITY>
93.82

> <JCHEM_ROTATABLE_BOND_COUNT>
7

> <ALOGPS_SOLUBILITY>
1.90e+00 g/l __ 

$$$$
