
  Mrv0541 02231217442D          

 11 10  0  0  1  0            999 V2000
    7.2849    3.3809    0.0000 N   0  0  0  0  0  0  0  0  0  0  0  0
    7.2849    2.5559    0.0000 C   0  0  1  0  0  0  0  0  0  0  0  0
    6.5704    2.1434    0.0000 C   0  0  0  0  0  0  0  0  0  0  0  0
    5.8559    2.5559    0.0000 S   0  0  0  0  0  0  0  0  0  0  0  0
    5.1414    2.1434    0.0000 S   0  0  0  0  0  0  0  0  0  0  0  0
    4.4270    2.5559    0.0000 C   0  0  0  0  0  0  0  0  0  0  0  0
    3.7125    2.1434    0.0000 C   0  0  0  0  0  0  0  0  0  0  0  0
    2.9980    2.5559    0.0000 O   0  0  0  0  0  0  0  0  0  0  0  0
    7.9993    2.1434    0.0000 C   0  0  0  0  0  0  0  0  0  0  0  0
    8.7138    2.5559    0.0000 O   0  0  0  0  0  0  0  0  0  0  0  0
    7.9993    1.3184    0.0000 O   0  0  0  0  0  0  0  0  0  0  0  0
  2  1  1  6  0  0  0
  2  3  1  0  0  0  0
  3  4  1  0  0  0  0
  4  5  1  0  0  0  0
  5  6  1  0  0  0  0
  6  7  1  0  0  0  0
  7  8  1  0  0  0  0
  2  9  1  0  0  0  0
  9 10  1  0  0  0  0
  9 11  2  0  0  0  0
M  END
> <DRUGBANK_ID>
DB04530

> <DRUG_GROUPS>
experimental

> <GENERIC_NAME>
S,S-(2-Hydroxyethyl)Thiocysteine

> <CHEMICAL_FORMULA>
C5H11NO3S2

> <MOLECULAR_WEIGHT>
197.276

> <EXACT_MASS>
197.018034603

> <IUPAC_NAME>
(2R)-2-amino-3-[(2-hydroxyethyl)disulfanyl]propanoic acid

> <IUPAC_TRADITIONAL_NAME>
(2R)-2-amino-3-[(2-hydroxyethyl)disulfanyl]propanoic acid

> <INCHI_IDENTIFIER>
InChI=1S/C5H11NO3S2/c6-4(5(8)9)3-11-10-2-1-7/h4,7H,1-3,6H2,(H,8,9)/t4-/m0/s1

> <INCHI_KEY>
InChIKey=YPUBRSXDQSFQBA-BYPYZUCNSA-N

> <SMILES>
N[C@@H](CSSCCO)C(O)=O

> <JCHEM_ACCEPTOR_COUNT>
4

> <JCHEM_DONOR_COUNT>
3

> <JCHEM_ACIDIC_PKA>
2.04

> <JCHEM_BASIC_PKA>
9.04

> <JCHEM_PHYSIOLOGICAL_CHARGE>
0

> <ALOGPS_LOGP>
-2.5

> <JCHEM_LOGP>
-3.2

> <ALOGPS_LOGS>
-0.74

> <JCHEM_POLARIZABILITY>
19.35

> <JCHEM_POLAR_SURFACE_AREA>
83.55

> <JCHEM_REFRACTIVITY>
47.38

> <JCHEM_ROTATABLE_BOND_COUNT>
6

> <ALOGPS_SOLUBILITY>
3.60e+01 g/l __ 

$$$$
