
  Mrv0541 02231217462D          

 12 12  0  0  0  0            999 V2000
   -0.7145    2.0625    0.0000 N   0  0  0  0  0  0  0  0  0  0  0  0
    0.0000    2.4750    0.0000 C   0  0  0  0  0  0  0  0  0  0  0  0
    0.7145    2.0625    0.0000 C   0  0  0  0  0  0  0  0  0  0  0  0
    0.7145    1.2375    0.0000 C   0  0  0  0  0  0  0  0  0  0  0  0
    1.4289    0.8250    0.0000 C   0  0  0  0  0  0  0  0  0  0  0  0
    1.4289    0.0000    0.0000 C   0  0  0  0  0  0  0  0  0  0  0  0
    0.7145   -0.4125    0.0000 C   0  0  0  0  0  0  0  0  0  0  0  0
    0.0000    0.0000    0.0000 C   0  0  0  0  0  0  0  0  0  0  0  0
    0.0000    0.8250    0.0000 C   0  0  0  0  0  0  0  0  0  0  0  0
    0.0000    3.3000    0.0000 C   0  0  0  0  0  0  0  0  0  0  0  0
   -0.7145    3.7125    0.0000 O   0  0  0  0  0  0  0  0  0  0  0  0
    0.7145    3.7125    0.0000 O   0  0  0  0  0  0  0  0  0  0  0  0
  1  2  1  0  0  0  0
  2  3  2  0  0  0  0
  3  4  1  0  0  0  0
  4  5  2  0  0  0  0
  5  6  1  0  0  0  0
  6  7  2  0  0  0  0
  7  8  1  0  0  0  0
  8  9  2  0  0  0  0
  4  9  1  0  0  0  0
  2 10  1  0  0  0  0
 10 11  1  0  0  0  0
 10 12  2  0  0  0  0
M  END
> <DRUGBANK_ID>
DB04584

> <DRUG_GROUPS>
experimental

> <GENERIC_NAME>
Phenyldehydroalanine

> <SYNONYMS>


> <CHEMICAL_FORMULA>
C9H9NO2

> <MOLECULAR_WEIGHT>
163.1733

> <EXACT_MASS>
163.063328537

> <IUPAC_NAME>
(2Z)-2-amino-3-phenylprop-2-enoic acid

> <IUPAC_TRADITIONAL_NAME>
phenyldehydroalanine

> <INCHI_IDENTIFIER>
InChI=1S/C9H9NO2/c10-8(9(11)12)6-7-4-2-1-3-5-7/h1-6H,10H2,(H,11,12)/b8-6-

> <INCHI_KEY>
InChIKey=YWIQQKOKNPPGDO-VURMDHGXSA-N

> <SMILES>
N\C(=C/C1=CC=CC=C1)C(O)=O

> <JCHEM_ACCEPTOR_COUNT>
3

> <JCHEM_DONOR_COUNT>
2

> <JCHEM_ACIDIC_PKA>
2.83

> <JCHEM_BASIC_PKA>
7.73

> <JCHEM_PHYSIOLOGICAL_CHARGE>
0

> <ALOGPS_LOGP>
1.48

> <JCHEM_LOGP>
-1.3

> <ALOGPS_LOGS>
-2.5

> <JCHEM_POLARIZABILITY>
16.67

> <JCHEM_POLAR_SURFACE_AREA>
63.32

> <JCHEM_REFRACTIVITY>
46.68

> <JCHEM_ROTATABLE_BOND_COUNT>
2

> <ALOGPS_SOLUBILITY>
5.00e-01 g/l __ 

$$$$
