
  Mrv0541 02231217452D          

 11 12  0  0  1  0            999 V2000
    3.2789    2.0625    0.0000 O   0  0  0  0  0  0  0  0  0  0  0  0
    3.2789    1.2375    0.0000 C   0  0  0  0  0  0  0  0  0  0  0  0
    3.9934    0.8250    0.0000 C   0  0  0  0  0  0  0  0  0  0  0  0
    3.9934    0.0000    0.0000 N   0  0  0  0  0  0  0  0  0  0  0  0
    3.2789   -0.4125    0.0000 C   0  0  0  0  0  0  0  0  0  0  0  0
    3.2789   -1.2375    0.0000 O   0  0  0  0  0  0  0  0  0  0  0  0
    2.5645    0.0000    0.0000 C   0  0  2  0  0  0  0  0  0  0  0  0
    1.7798   -0.2549    0.0000 C   0  0  0  0  0  0  0  0  0  0  0  0
    1.2949    0.4125    0.0000 C   0  0  0  0  0  0  0  0  0  0  0  0
    1.7798    1.0799    0.0000 C   0  0  0  0  0  0  0  0  0  0  0  0
    2.5645    0.8250    0.0000 N   0  0  0  0  0  0  0  0  0  0  0  0
  1  2  2  0  0  0  0
  2  3  1  0  0  0  0
  3  4  1  0  0  0  0
  4  5  1  0  0  0  0
  5  6  2  0  0  0  0
  5  7  1  0  0  0  0
  7  8  1  0  0  0  0
  8  9  1  0  0  0  0
  9 10  1  0  0  0  0
 10 11  1  0  0  0  0
  2 11  1  0  0  0  0
  7 11  1  6  0  0  0
M  END
> <DRUGBANK_ID>
DB04541

> <DRUG_GROUPS>
experimental

> <GENERIC_NAME>
(8ar)-Hexahydropyrrolo[1,2-a]Pyrazine-1,4-Dione

> <CHEMICAL_FORMULA>
C7H10N2O2

> <MOLECULAR_WEIGHT>
154.1665

> <EXACT_MASS>
154.074227574

> <IUPAC_NAME>
(8aS)-octahydropyrrolo[1,2-a]piperazine-1,4-dione

> <IUPAC_TRADITIONAL_NAME>
(8aS)-hexahydropyrrolo[1,2-a]piperazine-1,4-dione

> <INCHI_IDENTIFIER>
InChI=1S/C7H10N2O2/c10-6-4-8-7(11)5-2-1-3-9(5)6/h5H,1-4H2,(H,8,11)/t5-/m0/s1

> <INCHI_KEY>
InChIKey=OWOHLURDBZHNGG-YFKPBYRVSA-N

> <SMILES>
O=C1CNC(=O)[C@@H]2CCCN12

> <JCHEM_ACCEPTOR_COUNT>
2

> <JCHEM_DONOR_COUNT>
1

> <JCHEM_ACIDIC_PKA>
11.35

> <JCHEM_BASIC_PKA>
-4.2

> <JCHEM_PHYSIOLOGICAL_CHARGE>
0

> <ALOGPS_LOGP>
-1.6

> <JCHEM_LOGP>
-1.4

> <ALOGPS_LOGS>
0.11

> <JCHEM_POLARIZABILITY>
15.12

> <JCHEM_POLAR_SURFACE_AREA>
49.41

> <JCHEM_REFRACTIVITY>
37.79

> <JCHEM_ROTATABLE_BOND_COUNT>
0

> <ALOGPS_SOLUBILITY>
1.97e+02 g/l __ 

$$$$
