
  Mrv0541 02231217522D          

 15 16  0  0  0  0            999 V2000
   -1.8659   -1.4124    0.0000 C    0  0  0  0  0  0  0  0  0  0  0  0
   -1.4534   -0.6979    0.0000 S    0  0  0  0  0  0  0  0  0  0  0  0
   -0.6284   -0.6979    0.0000 C    0  0  0  0  0  0  0  0  0  0  0  0
   -0.1435   -1.3654    0.0000 N    0  0  0  0  0  0  0  0  0  0  0  0
    0.6411   -1.1104    0.0000 C    0  0  0  0  0  0  0  0  0  0  0  0
    0.6411   -0.2854    0.0000 C    0  0  0  0  0  0  0  0  0  0  0  0
   -0.1435   -0.0305    0.0000 N    0  0  0  0  0  0  0  0  0  0  0  0
    1.3556    0.1271    0.0000 C    0  0  0  0  0  0  0  0  0  0  0  0
    1.3556    0.9521    0.0000 Br   0  0  0  0  0  0  0  0  0  0  0  0
    2.0701   -0.2854    0.0000 C    0  0  0  0  0  0  0  0  0  0  0  0
    2.7845    0.1271    0.0000 Br   0  0  0  0  0  0  0  0  0  0  0  0
    2.0701   -1.1104    0.0000 C    0  0  0  0  0  0  0  0  0  0  0  0
    2.7845   -1.5229    0.0000 Br   0  0  0  0  0  0  0  0  0  0  0  0
    1.3556   -1.5229    0.0000 C    0  0  0  0  0  0  0  0  0  0  0  0
    1.3556   -2.3479    0.0000 Br   0  0  0  0  0  0  0  0  0  0  0  0
  1  2  1  0  0  0  0
  2  3  1  0  0  0  0
  3  4  2  0  0  0  0
  4  5  1  0  0  0  0
  5  6  2  0  0  0  0
  6  7  1  0  0  0  0
  3  7  1  0  0  0  0
  6  8  1  0  0  0  0
  8  9  1  0  0  0  0
  8 10  2  0  0  0  0
 10 11  1  0  0  0  0
 10 12  1  0  0  0  0
 12 13  1  0  0  0  0
 12 14  2  0  0  0  0
  5 14  1  0  0  0  0
 14 15  1  0  0  0  0
M  END
> <DRUGBANK_ID>
DB04720

> <DRUG_GROUPS>
experimental

> <GENERIC_NAME>
S-METHYL-4,5,6,7-TETRABROMO-BENZIMIDAZOLE

> <CHEMICAL_FORMULA>
C8H4Br4N2S

> <MOLECULAR_WEIGHT>
479.812

> <EXACT_MASS>
475.682869416

> <IUPAC_NAME>
4,5,6,7-tetrabromo-2-(methylsulfanyl)-1H-1,3-benzodiazole

> <IUPAC_TRADITIONAL_NAME>
4,5,6,7-tetrabromo-2-(methylsulfanyl)-1H-1,3-benzodiazole

> <INCHI_IDENTIFIER>
InChI=1S/C8H4Br4N2S/c1-15-8-13-6-4(11)2(9)3(10)5(12)7(6)14-8/h1H3,(H,13,14)

> <INCHI_KEY>
InChIKey=ZIGJZZDDPXRGTL-UHFFFAOYSA-N

> <SMILES>
CSC1=NC2=C(N1)C(Br)=C(Br)C(Br)=C2Br

> <JCHEM_ACCEPTOR_COUNT>
1

> <JCHEM_DONOR_COUNT>
1

> <JCHEM_ACIDIC_PKA>
8.94

> <JCHEM_BASIC_PKA>
3.1

> <JCHEM_PHYSIOLOGICAL_CHARGE>
0

> <ALOGPS_LOGP>
4.88

> <JCHEM_LOGP>
5.65

> <ALOGPS_LOGS>
-5.6

> <JCHEM_POLARIZABILITY>
31.13

> <JCHEM_POLAR_SURFACE_AREA>
28.68

> <JCHEM_REFRACTIVITY>
77.69

> <JCHEM_ROTATABLE_BOND_COUNT>
1

> <ALOGPS_SOLUBILITY>
1.31e-03 g/l __ 

$$$$
