
  Mrv0541 02241214202D          

 17 19  0  0  0  0            999 V2000
    4.0668   -0.1271    0.0000 C   0  0  0  0  0  0  0  0  0  0  0  0
    4.0668    0.6979    0.0000 C   0  0  0  0  0  0  0  0  0  0  0  0
    4.7812    1.1104    0.0000 C   0  0  0  0  0  0  0  0  0  0  0  0
    4.7812    1.9354    0.0000 C   0  0  0  0  0  0  0  0  0  0  0  0
    5.4957    2.3479    0.0000 O   0  0  0  0  0  0  0  0  0  0  0  0
    4.0668    2.3479    0.0000 O   0  0  0  0  0  0  0  0  0  0  0  0
    3.3523    1.9354    0.0000 C   0  0  0  0  0  0  0  0  0  0  0  0
    3.3523    1.1104    0.0000 C   0  0  0  0  0  0  0  0  0  0  0  0
    2.6378    0.6979    0.0000 C   0  0  0  0  0  0  0  0  0  0  0  0
    1.9233    1.1104    0.0000 C   0  0  0  0  0  0  0  0  0  0  0  0
    1.1387    0.8555    0.0000 C   0  0  0  0  0  0  0  0  0  0  0  0
    0.6538    1.5229    0.0000 C   0  0  0  0  0  0  0  0  0  0  0  0
    1.1387    2.1904    0.0000 O   0  0  0  0  0  0  0  0  0  0  0  0
    1.9233    1.9354    0.0000 C   0  0  0  0  0  0  0  0  0  0  0  0
    2.6378    2.3479    0.0000 C   0  0  0  0  0  0  0  0  0  0  0  0
    2.6378    3.1729    0.0000 C   0  0  0  0  0  0  0  0  0  0  0  0
   -0.1712    1.5229    0.0000 C   0  0  0  0  0  0  0  0  0  0  0  0
  1  2  1  0  0  0  0
  2  3  2  0  0  0  0
  3  4  1  0  0  0  0
  4  5  2  0  0  0  0
  4  6  1  0  0  0  0
  6  7  1  0  0  0  0
  7  8  2  0  0  0  0
  2  8  1  0  0  0  0
  8  9  1  0  0  0  0
  9 10  2  0  0  0  0
 10 11  1  0  0  0  0
 11 12  2  0  0  0  0
 12 13  1  0  0  0  0
 13 14  1  0  0  0  0
 10 14  1  0  0  0  0
 14 15  2  0  0  0  0
  7 15  1  0  0  0  0
 15 16  1  0  0  0  0
 12 17  1  0  0  0  0
M  END
> <DRUGBANK_ID>
DB04571

> <DRUG_GROUPS>
approved

> <GENERIC_NAME>
Trioxsalen

> <SYNONYMS>


> <CHEMICAL_FORMULA>
C14H12O3

> <MOLECULAR_WEIGHT>
228.2433

> <EXACT_MASS>
228.07864425

> <IUPAC_NAME>
4,7,9-trimethyl-2H-furo[3,2-g]chromen-2-one

> <IUPAC_TRADITIONAL_NAME>
lactone

> <INCHI_IDENTIFIER>
InChI=1S/C14H12O3/c1-7-4-12(15)17-14-9(3)13-10(6-11(7)14)5-8(2)16-13/h4-6H,1-3H3

> <INCHI_KEY>
InChIKey=FMHHVULEAZTJMA-UHFFFAOYSA-N

> <SMILES>
CC1=CC2=CC3=C(OC(=O)C=C3C)C(C)=C2O1

> <JCHEM_ACCEPTOR_COUNT>
1

> <JCHEM_DONOR_COUNT>
0

> <JCHEM_BASIC_PKA>
-2.7

> <JCHEM_PHYSIOLOGICAL_CHARGE>
0

> <ALOGPS_LOGP>
3.26

> <JCHEM_LOGP>
2.95

> <ALOGPS_LOGS>
-3.6

> <JCHEM_POLARIZABILITY>
24.77

> <JCHEM_POLAR_SURFACE_AREA>
39.44

> <JCHEM_REFRACTIVITY>
64.86

> <JCHEM_ROTATABLE_BOND_COUNT>
0

> <ALOGPS_SOLUBILITY>
6.27e-02 g/l __ 

$$$$
