
  Mrv0541 02231217252D          

101110  0  0  1  0            999 V2000
    1.1342   -2.9460    0.0000 C    0  0  0  0  0  0  0  0  0  0  0  0
    0.3174   -2.9970    0.0000 N    0  0  0  0  0  0  0  0  0  0  0  0
   -0.1352   -2.3151    0.0000 C    0  0  2  0  0  0  0  0  0  0  0  0
   -0.9521   -2.3661    0.0000 C    0  0  0  0  0  0  0  0  0  0  0  0
   -1.3164   -3.0990    0.0000 C    0  0  0  0  0  0  0  0  0  0  0  0
   -2.1332   -3.1500    0.0000 C    0  0  0  0  0  0  0  0  0  0  0  0
   -0.8638   -3.7810    0.0000 C    0  0  0  0  0  0  0  0  0  0  0  0
    0.2291   -1.5821    0.0000 C    0  0  0  0  0  0  0  0  0  0  0  0
   -0.2235   -0.9003    0.0000 O    0  0  0  0  0  0  0  0  0  0  0  0
    1.0459   -1.5313    0.0000 N    0  0  0  0  0  0  0  0  0  0  0  0
    1.4102   -0.7983    0.0000 C    0  0  1  0  0  0  0  0  0  0  0  0
    0.7691   -0.2565    0.0000 C    0  0  1  0  0  0  0  0  0  0  0  0
    0.0652   -0.6741    0.0000 O    0  0  0  0  0  0  0  0  0  0  0  0
    0.5993    0.5743    0.0000 C    0  0  0  0  0  0  0  0  0  0  0  0
    0.0625    1.2159    0.0000 C    0  0  0  0  0  0  0  0  0  0  0  0
    0.3308    2.0025    0.0000 C    0  0  0  0  0  0  0  0  0  0  0  0
   -0.2108    2.6162    0.0000 Cl   0  0  0  0  0  0  0  0  0  0  0  0
    1.1512    2.1721    0.0000 C    0  0  0  0  0  0  0  0  0  0  0  0
    1.7190    2.8074    0.0000 O    0  0  0  0  0  0  0  0  0  0  0  0
    2.4797    3.1938    0.0000 C    0  0  0  0  0  0  0  0  0  0  0  0
    2.8527    3.9467    0.0000 C    0  0  0  0  0  0  0  0  0  0  0  0
    2.3760    4.6121    0.0000 O    0  0  0  0  0  0  0  0  0  0  0  0
    1.5615    4.5320    0.0000 C    0  0  2  0  0  0  0  0  0  0  0  0
    1.2236    3.7866    0.0000 O    0  0  0  0  0  0  0  0  0  0  0  0
    0.4090    3.7065    0.0000 C    0  0  2  0  0  0  0  0  0  0  0  0
    0.0711    2.9611    0.0000 C    0  0  0  0  0  0  0  0  0  0  0  0
   -0.7434    2.8810    0.0000 O    0  0  0  0  0  0  0  0  0  0  0  0
   -0.0676    4.3718    0.0000 C    0  0  1  0  0  0  0  0  0  0  0  0
   -0.8820    4.2918    0.0000 O    0  0  0  0  0  0  0  0  0  0  0  0
    0.2703    5.1173    0.0000 C    0  0  2  0  0  0  0  0  0  0  0  0
   -0.2063    5.7826    0.0000 O    0  0  0  0  0  0  0  0  0  0  0  0
    1.0849    5.1974    0.0000 C    0  0  1  0  0  0  0  0  0  0  0  0
    1.4228    5.9429    0.0000 O    0  0  0  0  0  0  0  0  0  0  0  0
    3.6866    4.0577    0.0000 C    0  0  0  0  0  0  0  0  0  0  0  0
    4.1401    3.3608    0.0000 C    0  0  0  0  0  0  0  0  0  0  0  0
    3.8223    2.5942    0.0000 C    0  0  0  0  0  0  0  0  0  0  0  0
    2.9952    2.5423    0.0000 C    0  0  0  0  0  0  0  0  0  0  0  0
    4.2758    1.8767    0.0000 C    0  0  1  0  0  0  0  0  0  0  0  0
    4.0910    1.0610    0.0000 N    0  0  0  0  0  0  0  0  0  0  0  0
    4.1788    0.2339    0.0000 C    0  0  0  0  0  0  0  0  0  0  0  0
    4.9802    0.0674    0.0000 O    0  0  0  0  0  0  0  0  0  0  0  0
    3.7723   -0.4830    0.0000 C    0  0  1  0  0  0  0  0  0  0  0  0
    4.3487   -1.0641    0.0000 C    0  0  0  0  0  0  0  0  0  0  0  0
    4.1336   -1.8539    0.0000 C    0  0  0  0  0  0  0  0  0  0  0  0
    4.7099   -2.4349    0.0000 N    0  0  0  0  0  0  0  0  0  0  0  0
    3.3422   -2.0624    0.0000 O    0  0  0  0  0  0  0  0  0  0  0  0
    3.0495   -0.8850    0.0000 N    0  0  0  0  0  0  0  0  0  0  0  0
    2.2245   -0.9813    0.0000 C    0  0  0  0  0  0  0  0  0  0  0  0
    2.1816   -1.7985    0.0000 O    0  0  0  0  0  0  0  0  0  0  0  0
    5.1114    1.8444    0.0000 C    0  0  0  0  0  0  0  0  0  0  0  0
    5.3028    2.6403    0.0000 O    0  0  0  0  0  0  0  0  0  0  0  0
    5.8631    1.4966    0.0000 N    0  0  0  0  0  0  0  0  0  0  0  0
    6.6877    1.6323    0.0000 C    0  0  1  0  0  0  0  0  0  0  0  0
    6.8210    2.4594    0.0000 C    0  0  0  0  0  0  0  0  0  0  0  0
    6.0676    2.7790    0.0000 O    0  0  0  0  0  0  0  0  0  0  0  0
    7.3211    3.1276    0.0000 N    0  0  0  0  0  0  0  0  0  0  0  0
    7.7461    3.8577    0.0000 C    0  0  1  0  0  0  0  0  0  0  0  0
    7.4499    4.6493    0.0000 C    0  0  1  0  0  0  0  0  0  0  0  0
    8.0756    5.1770    0.0000 O    0  0  0  0  0  0  0  0  0  0  0  0
    7.9314    5.9826    0.0000 C    0  0  2  0  0  0  0  0  0  0  0  0
    7.1616    6.2606    0.0000 C    0  0  0  0  0  0  0  0  0  0  0  0
    7.0174    7.0663    0.0000 C    0  0  1  0  0  0  0  0  0  0  0  0
    6.2490    6.7844    0.0000 C    0  0  0  0  0  0  0  0  0  0  0  0
    6.6064    7.7740    0.0000 N    0  0  0  0  0  0  0  0  0  0  0  0
    7.6430    7.5939    0.0000 C    0  0  0  0  0  0  0  0  0  0  0  0
    7.4988    8.3996    0.0000 O    0  0  0  0  0  0  0  0  0  0  0  0
    8.4128    7.3160    0.0000 C    0  0  2  0  0  0  0  0  0  0  0  0
    9.0384    7.8438    0.0000 C    0  0  0  0  0  0  0  0  0  0  0  0
    8.5569    6.5103    0.0000 O    0  0  0  0  0  0  0  0  0  0  0  0
    6.7187    5.0753    0.0000 C    0  0  0  0  0  0  0  0  0  0  0  0
    6.2799    5.7880    0.0000 C    0  0  0  0  0  0  0  0  0  0  0  0
    5.4505    5.7814    0.0000 C    0  0  0  0  0  0  0  0  0  0  0  0
    5.0389    6.4889    0.0000 Cl   0  0  0  0  0  0  0  0  0  0  0  0
    5.0304    5.0561    0.0000 C    0  0  0  0  0  0  0  0  0  0  0  0
    4.2690    4.6788    0.0000 O    0  0  0  0  0  0  0  0  0  0  0  0
    5.4697    4.3550    0.0000 C    0  0  0  0  0  0  0  0  0  0  0  0
    6.2867    4.3666    0.0000 C    0  0  0  0  0  0  0  0  0  0  0  0
    8.5752    3.9774    0.0000 C    0  0  0  0  0  0  0  0  0  0  0  0
    8.7447    4.7781    0.0000 O    0  0  0  0  0  0  0  0  0  0  0  0
    9.2726    3.5395    0.0000 N    0  0  0  0  0  0  0  0  0  0  0  0
    9.3662    2.7201    0.0000 C    0  0  2  0  0  0  0  0  0  0  0  0
   10.1439    2.9749    0.0000 C    0  0  0  0  0  0  0  0  0  0  0  0
   10.3122    3.7759    0.0000 O    0  0  0  0  0  0  0  0  0  0  0  0
   10.7535    2.4288    0.0000 O    0  0  0  0  0  0  0  0  0  0  0  0
    9.7761    2.0032    0.0000 C    0  0  0  0  0  0  0  0  0  0  0  0
    9.4955    1.2342    0.0000 C    0  0  0  0  0  0  0  0  0  0  0  0
   10.0211    0.6068    0.0000 C    0  0  0  0  0  0  0  0  0  0  0  0
    9.7407   -0.1620    0.0000 O    0  0  0  0  0  0  0  0  0  0  0  0
   10.8273    0.7484    0.0000 C    0  0  0  0  0  0  0  0  0  0  0  0
   11.1078    1.5173    0.0000 C    0  0  0  0  0  0  0  0  0  0  0  0
   11.9140    1.6587    0.0000 O    0  0  0  0  0  0  0  0  0  0  0  0
   10.5822    2.1446    0.0000 C    0  0  0  0  0  0  0  0  0  0  0  0
    8.7515    0.8313    0.0000 C    0  0  0  0  0  0  0  0  0  0  0  0
    8.6135    0.0121    0.0000 C    0  0  0  0  0  0  0  0  0  0  0  0
    9.2506   -0.5017    0.0000 O    0  0  0  0  0  0  0  0  0  0  0  0
    7.8471   -0.2942    0.0000 C    0  0  0  0  0  0  0  0  0  0  0  0
    7.2034    0.2225    0.0000 C    0  0  0  0  0  0  0  0  0  0  0  0
    7.3064    1.0496    0.0000 C    0  0  0  0  0  0  0  0  0  0  0  0
    8.0886    1.3334    0.0000 C    0  0  0  0  0  0  0  0  0  0  0  0
    1.6779    1.5310    0.0000 C    0  0  0  0  0  0  0  0  0  0  0  0
    1.4098    0.7588    0.0000 C    0  0  0  0  0  0  0  0  0  0  0  0
  1  2  1  0  0  0  0
  3  2  1  6  0  0  0
  3  4  1  0  0  0  0
  4  5  1  0  0  0  0
  5  6  1  0  0  0  0
  5  7  1  0  0  0  0
  3  8  1  0  0  0  0
  8  9  2  0  0  0  0
  8 10  1  0  0  0  0
 11 10  1  1  0  0  0
 11 12  1  0  0  0  0
 12 13  1  1  0  0  0
 12 14  1  0  0  0  0
 14 15  2  0  0  0  0
 15 16  1  0  0  0  0
 16 17  1  0  0  0  0
 16 18  2  0  0  0  0
 18 19  1  0  0  0  0
 19 20  1  0  0  0  0
 20 21  2  0  0  0  0
 21 22  1  0  0  0  0
 23 22  1  6  0  0  0
 23 24  1  0  0  0  0
 24 25  1  0  0  0  0
 25 26  1  6  0  0  0
 26 27  1  0  0  0  0
 25 28  1  0  0  0  0
 28 29  1  1  0  0  0
 28 30  1  0  0  0  0
 30 31  1  6  0  0  0
 30 32  1  0  0  0  0
 23 32  1  0  0  0  0
 32 33  1  1  0  0  0
 21 34  1  0  0  0  0
 34 35  2  0  0  0  0
 35 36  1  0  0  0  0
 36 37  2  0  0  0  0
 20 37  1  0  0  0  0
 38 36  1  6  0  0  0
 38 39  1  0  0  0  0
 39 40  1  0  0  0  0
 40 41  2  0  0  0  0
 40 42  1  0  0  0  0
 42 43  1  1  0  0  0
 43 44  1  0  0  0  0
 44 45  1  0  0  0  0
 44 46  2  0  0  0  0
 42 47  1  0  0  0  0
 47 48  1  0  0  0  0
 11 48  1  0  0  0  0
 48 49  2  0  0  0  0
 38 50  1  0  0  0  0
 50 51  2  0  0  0  0
 50 52  1  0  0  0  0
 53 52  1  1  0  0  0
 53 54  1  0  0  0  0
 54 55  2  0  0  0  0
 54 56  1  0  0  0  0
 57 56  1  1  0  0  0
 57 58  1  0  0  0  0
 58 59  1  6  0  0  0
 60 59  1  6  0  0  0
 60 61  1  0  0  0  0
 61 62  1  0  0  0  0
 62 63  1  6  0  0  0
 62 64  1  1  0  0  0
 62 65  1  0  0  0  0
 65 66  2  0  0  0  0
 65 67  1  0  0  0  0
 67 68  1  6  0  0  0
 67 69  1  0  0  0  0
 60 69  1  0  0  0  0
 58 70  1  0  0  0  0
 70 71  2  0  0  0  0
 71 72  1  0  0  0  0
 72 73  1  0  0  0  0
 72 74  2  0  0  0  0
 74 75  1  0  0  0  0
 34 75  1  0  0  0  0
 74 76  1  0  0  0  0
 76 77  2  0  0  0  0
 70 77  1  0  0  0  0
 57 78  1  0  0  0  0
 78 79  2  0  0  0  0
 78 80  1  0  0  0  0
 80 81  1  0  0  0  0
 81 82  1  1  0  0  0
 82 83  1  0  0  0  0
 82 84  2  0  0  0  0
 81 85  1  0  0  0  0
 85 86  2  0  0  0  0
 86 87  1  0  0  0  0
 87 88  1  0  0  0  0
 87 89  2  0  0  0  0
 89 90  1  0  0  0  0
 90 91  1  0  0  0  0
 90 92  2  0  0  0  0
 85 92  1  0  0  0  0
 86 93  1  0  0  0  0
 93 94  2  0  0  0  0
 94 95  1  0  0  0  0
 94 96  1  0  0  0  0
 96 97  2  0  0  0  0
 97 98  1  0  0  0  0
 53 98  1  0  0  0  0
 98 99  2  0  0  0  0
 93 99  1  0  0  0  0
 18100  1  0  0  0  0
100101  2  0  0  0  0
 14101  1  0  0  0  0
M  END
> <DRUGBANK_ID>
DB04111

> <DRUG_GROUPS>
experimental

> <GENERIC_NAME>
Balhimycin

> <CHEMICAL_FORMULA>
C66H73Cl2N9O24

> <MOLECULAR_WEIGHT>
1447.238

> <EXACT_MASS>
1445.414549723

> <IUPAC_NAME>
(1S,2S,18S,19S,22R,25R,28R,40S)-2-{[(2S,4R,6S)-4-amino-4,6-dimethyl-5-oxooxan-2-yl]oxy}-22-(carbamoylmethyl)-5,15-dichloro-18,32,35,37-tetrahydroxy-19-[(2R)-4-methyl-2-(methylamino)pentanamido]-20,23,26,42,44-pentaoxo-48-{[(2S,3R,4S,5S,6R)-3,4,5-trihydroxy-6-(hydroxymethyl)oxan-2-yl]oxy}-7,13-dioxa-21,24,27,41,43-pentaazaoctacyclo[26.14.2.2^{3,6}.2^{14,17}.1^{8,12}.1^{29,33}.0^{10,25}.0^{34,39}]pentaconta-3,5,8,10,12(48),14,16,29(45),30,32,34(39),35,37,46,49-pentadecaene-40-carboxylic acid

> <IUPAC_TRADITIONAL_NAME>
balhimycin

> <INCHI_IDENTIFIER>
InChI=1S/C66H73Cl2N9O24/c1-23(2)12-34(71-5)58(88)76-49-51(83)26-7-10-38(32(67)14-26)97-40-16-28-17-41(56(40)101-65-54(86)53(85)52(84)42(22-78)99-65)98-39-11-8-27(15-33(39)68)55(100-44-21-66(4,70)57(87)24(3)96-44)50-63(93)75-48(64(94)95)31-18-29(79)19-37(81)45(31)30-13-25(6-9-36(30)80)46(60(90)77-50)74-61(91)47(28)73-59(89)35(20-43(69)82)72-62(49)92/h6-11,13-19,23-24,34-35,42,44,46-55,65,71,78-81,83-86H,12,20-22,70H2,1-5H3,(H2,69,82)(H,72,92)(H,73,89)(H,74,91)(H,75,93)(H,76,88)(H,77,90)(H,94,95)/t24-,34+,35+,42+,44+,46+,47+,48-,49-,50-,51-,52+,53-,54+,55-,65-,66+/m0/s1

> <INCHI_KEY>
InChIKey=WKNFBFHAYANQHF-QITLWLKTSA-N

> <SMILES>
CN[C@H](CC(C)C)C(=O)N[C@H]1[C@@H](O)C2=CC(Cl)=C(OC3=C(O[C@@H]4O[C@H](CO)[C@@H](O)[C@H](O)[C@H]4O)C4=CC(=C3)[C@@H](NC(=O)[C@@H](CC(N)=O)NC1=O)C(=O)N[C@@H]1C3=CC(=C(O)C=C3)C3=C(C=C(O)C=C3O)[C@H](NC(=O)[C@@H](NC1=O)[C@@H](O[C@@H]1C[C@@](C)(N)C(=O)[C@H](C)O1)C1=CC(Cl)=C(O4)C=C1)C(O)=O)C=C2

> <JCHEM_ACCEPTOR_COUNT>
24

> <JCHEM_DONOR_COUNT>
18

> <JCHEM_ACIDIC_PKA>
2.99

> <JCHEM_BASIC_PKA>
8.81

> <JCHEM_PHYSIOLOGICAL_CHARGE>
1

> <ALOGPS_LOGP>
1.53

> <JCHEM_LOGP>
-3.3

> <ALOGPS_LOGS>
-3.8

> <JCHEM_POLARIZABILITY>
139.67

> <JCHEM_POLAR_SURFACE_AREA>
527.33

> <JCHEM_REFRACTIVITY>
345.92

> <JCHEM_ROTATABLE_BOND_COUNT>
13

> <ALOGPS_SOLUBILITY>
2.09e-01 g/l __ 

$$$$
