
  Mrv0541 02231217212D          

 33 36  0  0  0  0            999 V2000
    5.0013   -0.4125    0.0000 O    0  0  0  0  0  0  0  0  0  0  0  0
    5.0013   -1.2375    0.0000 C    0  0  0  0  0  0  0  0  0  0  0  0
    5.7158   -1.6500    0.0000 C    0  0  0  0  0  0  0  0  0  0  0  0
    5.7158   -2.4750    0.0000 C    0  0  0  0  0  0  0  0  0  0  0  0
    5.0013   -2.8875    0.0000 C    0  0  0  0  0  0  0  0  0  0  0  0
    5.0013   -3.7125    0.0000 C    0  0  0  0  0  0  0  0  0  0  0  0
    4.2868   -4.1250    0.0000 C    0  0  0  0  0  0  0  0  0  0  0  0
    4.2868   -4.9500    0.0000 N    0  0  0  0  0  0  0  0  0  0  0  0
    3.5724   -5.3625    0.0000 C    0  0  0  0  0  0  0  0  0  0  0  0
    3.5724   -6.1875    0.0000 N    0  0  0  0  0  0  0  0  0  0  0  0
    2.8579   -6.6000    0.0000 C    0  0  0  0  0  0  0  0  0  0  0  0
    2.8579   -7.4250    0.0000 S    0  0  0  0  0  0  0  0  0  0  0  0
    3.5724   -7.8375    0.0000 C    0  0  0  0  0  0  0  0  0  0  0  0
    3.5724   -8.6625    0.0000 C    0  0  0  0  0  0  0  0  0  0  0  0
    4.2868   -9.0750    0.0000 C    0  0  0  0  0  0  0  0  0  0  0  0
    4.2868   -9.9000    0.0000 C    0  0  0  0  0  0  0  0  0  0  0  0
    5.0013  -10.3125    0.0000 C    0  0  0  0  0  0  0  0  0  0  0  0
    5.0013  -11.1375    0.0000 C    0  0  0  0  0  0  0  0  0  0  0  0
    4.2868  -11.5500    0.0000 C    0  0  0  0  0  0  0  0  0  0  0  0
    4.2868  -12.3750    0.0000 Cl   0  0  0  0  0  0  0  0  0  0  0  0
    3.5724  -11.1375    0.0000 C    0  0  0  0  0  0  0  0  0  0  0  0
    3.5724  -10.3125    0.0000 C    0  0  0  0  0  0  0  0  0  0  0  0
    2.1434   -6.1875    0.0000 N    0  0  0  0  0  0  0  0  0  0  0  0
    2.1434   -5.3625    0.0000 C    0  0  0  0  0  0  0  0  0  0  0  0
    2.8579   -4.9500    0.0000 N    0  0  0  0  0  0  0  0  0  0  0  0
    1.4289   -4.9500    0.0000 N    0  0  0  0  0  0  0  0  0  0  0  0
    0.7145   -5.3625    0.0000 C    0  0  0  0  0  0  0  0  0  0  0  0
    0.0000   -4.9500    0.0000 C    0  0  0  0  0  0  0  0  0  0  0  0
    0.0000   -4.1250    0.0000 N    0  0  0  0  0  0  0  0  0  0  0  0
    0.7145   -3.7125    0.0000 C    0  0  0  0  0  0  0  0  0  0  0  0
    1.4289   -4.1250    0.0000 C    0  0  0  0  0  0  0  0  0  0  0  0
    4.2868   -2.4750    0.0000 C    0  0  0  0  0  0  0  0  0  0  0  0
    4.2868   -1.6500    0.0000 C    0  0  0  0  0  0  0  0  0  0  0  0
  1  2  1  0  0  0  0
  2  3  2  0  0  0  0
  3  4  1  0  0  0  0
  4  5  2  0  0  0  0
  5  6  1  0  0  0  0
  6  7  1  0  0  0  0
  7  8  1  0  0  0  0
  8  9  1  0  0  0  0
  9 10  2  0  0  0  0
 10 11  1  0  0  0  0
 11 12  1  0  0  0  0
 12 13  1  0  0  0  0
 13 14  1  0  0  0  0
 14 15  1  0  0  0  0
 15 16  1  0  0  0  0
 16 17  2  0  0  0  0
 17 18  1  0  0  0  0
 18 19  2  0  0  0  0
 19 20  1  0  0  0  0
 19 21  1  0  0  0  0
 21 22  2  0  0  0  0
 16 22  1  0  0  0  0
 11 23  2  0  0  0  0
 23 24  1  0  0  0  0
 24 25  2  0  0  0  0
  9 25  1  0  0  0  0
 24 26  1  0  0  0  0
 26 27  1  0  0  0  0
 27 28  1  0  0  0  0
 28 29  1  0  0  0  0
 29 30  1  0  0  0  0
 30 31  1  0  0  0  0
 26 31  1  0  0  0  0
  5 32  1  0  0  0  0
 32 33  2  0  0  0  0
  2 33  1  0  0  0  0
M  END
> <DRUGBANK_ID>
DB04020

> <DRUG_GROUPS>
experimental

> <GENERIC_NAME>
4-(2-{[4-{[3-(4-Chlorophenyl)Propyl]Sulfanyl}-6-(1-Piperazinyl)-1,3,5-Triazin-2-Yl]Amino}Ethyl)Phenol

> <CHEMICAL_FORMULA>
C24H29ClN6OS

> <MOLECULAR_WEIGHT>
485.045

> <EXACT_MASS>
484.181207977

> <IUPAC_NAME>
4-{2-[(4-{[3-(4-chlorophenyl)propyl]sulfanyl}-6-(piperazin-1-yl)-1,3,5-triazin-2-yl)amino]ethyl}phenol

> <IUPAC_TRADITIONAL_NAME>
4-{2-[(4-{[3-(4-chlorophenyl)propyl]sulfanyl}-6-(piperazin-1-yl)-1,3,5-triazin-2-yl)amino]ethyl}phenol

> <INCHI_IDENTIFIER>
InChI=1S/C24H29ClN6OS/c25-20-7-3-18(4-8-20)2-1-17-33-24-29-22(27-12-11-19-5-9-21(32)10-6-19)28-23(30-24)31-15-13-26-14-16-31/h3-10,26,32H,1-2,11-17H2,(H,27,28,29,30)

> <INCHI_KEY>
InChIKey=AIBKIFHSQQYXLG-UHFFFAOYSA-N

> <SMILES>
OC1=CC=C(CCNC2=NC(SCCCC3=CC=C(Cl)C=C3)=NC(=N2)N2CCNCC2)C=C1

> <JCHEM_ACCEPTOR_COUNT>
7

> <JCHEM_DONOR_COUNT>
3

> <JCHEM_ACIDIC_PKA>
10.26

> <JCHEM_BASIC_PKA>
8.66

> <JCHEM_PHYSIOLOGICAL_CHARGE>
1

> <ALOGPS_LOGP>
4.83

> <JCHEM_LOGP>
6.04

> <ALOGPS_LOGS>
-5

> <JCHEM_POLARIZABILITY>
53.4

> <JCHEM_POLAR_SURFACE_AREA>
86.2

> <JCHEM_REFRACTIVITY>
140.67

> <JCHEM_ROTATABLE_BOND_COUNT>
10

> <ALOGPS_SOLUBILITY>
4.71e-03 g/l __ 

$$$$
