LUM
  Mrv0541 02231217372D          

 18 20  0  0  0  0            999 V2000
    2.1222    0.8300    0.0000 N   0  0  0  0  0  0  0  0  0  0  0  0
    2.8367    0.4175    0.0000 C   0  0  0  0  0  0  0  0  0  0  0  0
    1.4078    0.4175    0.0000 C   0  0  0  0  0  0  0  0  0  0  0  0
    3.5512    0.8300    0.0000 O   0  0  0  0  0  0  0  0  0  0  0  0
    2.8367   -0.4075    0.0000 N   0  0  0  0  0  0  0  0  0  0  0  0
    2.1222   -0.8200    0.0000 C   0  0  0  0  0  0  0  0  0  0  0  0
    2.1222   -1.6450    0.0000 O   0  0  0  0  0  0  0  0  0  0  0  0
    1.4078   -0.4075    0.0000 C   0  0  0  0  0  0  0  0  0  0  0  0
    0.6933   -0.8200    0.0000 N   0  0  0  0  0  0  0  0  0  0  0  0
   -0.0212   -0.4075    0.0000 C   0  0  0  0  0  0  0  0  0  0  0  0
   -0.7356   -0.8200    0.0000 C   0  0  0  0  0  0  0  0  0  0  0  0
   -0.0212    0.4175    0.0000 C   0  0  0  0  0  0  0  0  0  0  0  0
   -1.4501   -0.4075    0.0000 C   0  0  0  0  0  0  0  0  0  0  0  0
   -2.1646   -0.8200    0.0000 C   0  0  0  0  0  0  0  0  0  0  0  0
   -1.4501    0.4175    0.0000 C   0  0  0  0  0  0  0  0  0  0  0  0
   -2.1646    0.8300    0.0000 C   0  0  0  0  0  0  0  0  0  0  0  0
   -0.7356    0.8300    0.0000 C   0  0  0  0  0  0  0  0  0  0  0  0
    0.6933    0.8300    0.0000 N   0  0  0  0  0  0  0  0  0  0  0  0
  1  2  1  0  0  0  0
  1  3  1  0  0  0  0
  2  4  2  0  0  0  0
  2  5  1  0  0  0  0
  3  8  2  0  0  0  0
  3 18  1  0  0  0  0
  5  6  1  0  0  0  0
  6  7  2  0  0  0  0
  6  8  1  0  0  0  0
  8  9  1  0  0  0  0
  9 10  2  0  0  0  0
 10 11  1  0  0  0  0
 10 12  1  0  0  0  0
 11 13  2  0  0  0  0
 12 17  1  0  0  0  0
 12 18  2  0  0  0  0
 13 14  1  0  0  0  0
 13 15  1  0  0  0  0
 15 16  1  0  0  0  0
 15 17  2  0  0  0  0
M  END
> <DRUGBANK_ID>
DB04345

> <DRUG_GROUPS>
experimental

> <GENERIC_NAME>
7,8-dimethylalloxazine

> <SYNONYMS>
7,8-dimethylbenzo[g]pteridine-2,4(1H,3H)-dione; lumichrome

> <CHEMICAL_FORMULA>
C12H10N4O2

> <MOLECULAR_WEIGHT>
242.2334

> <EXACT_MASS>
242.080375584

> <IUPAC_NAME>
7,8-dimethyl-1H,2H,3H,4H-benzo[g]pteridine-2,4-dione

> <IUPAC_TRADITIONAL_NAME>
7,8-dimethylalloxazine

> <INCHI_IDENTIFIER>
InChI=1S/C12H10N4O2/c1-5-3-7-8(4-6(5)2)14-10-9(13-7)11(17)16-12(18)15-10/h3-4H,1-2H3,(H2,14,15,16,17,18)

> <INCHI_KEY>
InChIKey=ZJTJUVIJVLLGSP-UHFFFAOYSA-N

> <SMILES>
CC1=CC2=NC3=C(N=C2C=C1C)C(=O)NC(=O)N3

> <JCHEM_ACCEPTOR_COUNT>
4

> <JCHEM_DONOR_COUNT>
2

> <JCHEM_ACIDIC_PKA>
8.85

> <JCHEM_BASIC_PKA>
-0.15

> <JCHEM_PHYSIOLOGICAL_CHARGE>
0

> <ALOGPS_LOGP>
1.18

> <JCHEM_LOGP>
2.73

> <ALOGPS_LOGS>
-3.7

> <JCHEM_POLARIZABILITY>
24.37

> <JCHEM_POLAR_SURFACE_AREA>
83.98

> <JCHEM_REFRACTIVITY>
65.19

> <JCHEM_ROTATABLE_BOND_COUNT>
0

> <ALOGPS_SOLUBILITY>
5.11e-02 g/l __ 

$$$$
