
  Mrv0541 02231217292D          

 43 45  0  0  1  0            999 V2000
   -1.7605   -0.0296    0.0000 C   0  0  0  0  0  0  0  0  0  0  0  0
   -0.9355   -0.0296    0.0000 C   0  0  0  0  0  0  0  0  0  0  0  0
   -0.5230    0.6849    0.0000 C   0  0  0  0  0  0  0  0  0  0  0  0
   -0.5230   -0.7441    0.0000 C   0  0  0  0  0  0  0  0  0  0  0  0
    0.3020   -0.7441    0.0000 C   0  0  0  0  0  0  0  0  0  0  0  0
    0.7145   -1.4586    0.0000 C   0  0  0  0  0  0  0  0  0  0  0  0
    1.5395   -1.4586    0.0000 C   0  0  0  0  0  0  0  0  0  0  0  0
    1.9520   -2.1730    0.0000 C   0  0  0  0  0  0  0  0  0  0  0  0
    1.9520   -0.7441    0.0000 C   0  0  0  0  0  0  0  0  0  0  0  0
    0.3020   -2.1730    0.0000 C   0  0  0  0  0  0  0  0  0  0  0  0
   -0.5230   -2.1730    0.0000 C   0  0  0  0  0  0  0  0  0  0  0  0
   -0.9355   -1.4586    0.0000 C   0  0  0  0  0  0  0  0  0  0  0  0
   -0.9355   -2.8875    0.0000 C   0  0  0  0  0  0  0  0  0  0  0  0
   -1.7605   -2.8875    0.0000 C   0  0  0  0  0  0  0  0  0  0  0  0
   -0.5230   -3.6020    0.0000 C   0  0  0  0  0  0  0  0  0  0  0  0
    0.7145   -2.8875    0.0000 S   0  0  0  0  0  0  0  0  0  0  0  0
    0.0000   -3.3000    0.0000 O   0  0  0  0  0  0  0  0  0  0  0  0
    1.1270   -3.6020    0.0000 O   0  0  0  0  0  0  0  0  0  0  0  0
    1.4289   -2.4750    0.0000 N   0  0  0  0  0  0  0  0  0  0  0  0
    2.1434   -2.8875    0.0000 C   0  0  2  0  0  0  0  0  0  0  0  0
    2.1434   -3.7125    0.0000 C   0  0  0  0  0  0  0  0  0  0  0  0
    1.4289   -4.1250    0.0000 C   0  0  0  0  0  0  0  0  0  0  0  0
    0.7145   -3.7125    0.0000 C   0  0  0  0  0  0  0  0  0  0  0  0
    0.0000   -4.1250    0.0000 C   0  0  0  0  0  0  0  0  0  0  0  0
    0.0000   -4.9500    0.0000 C   0  0  0  0  0  0  0  0  0  0  0  0
    0.7145   -5.3625    0.0000 C   0  0  0  0  0  0  0  0  0  0  0  0
    1.4289   -4.9500    0.0000 C   0  0  0  0  0  0  0  0  0  0  0  0
    0.7145   -6.1875    0.0000 C   0  0  0  0  0  0  0  0  0  0  0  0
    1.4289   -6.6000    0.0000 N   0  0  0  0  0  0  0  0  0  0  0  0
    0.0000   -6.6000    0.0000 N   0  0  0  0  0  0  0  0  0  0  0  0
    2.8579   -2.4750    0.0000 C   0  0  0  0  0  0  0  0  0  0  0  0
    2.8579   -1.6500    0.0000 O   0  0  0  0  0  0  0  0  0  0  0  0
    3.5724   -2.8875    0.0000 N   0  0  0  0  0  0  0  0  0  0  0  0
    4.2868   -2.4750    0.0000 C   0  0  0  0  0  0  0  0  0  0  0  0
    5.0013   -2.8875    0.0000 C   0  0  0  0  0  0  0  0  0  0  0  0
    5.0013   -3.7125    0.0000 N   0  0  0  0  0  0  0  0  0  0  0  0
    4.2868   -4.1250    0.0000 C   0  0  0  0  0  0  0  0  0  0  0  0
    3.5724   -3.7125    0.0000 C   0  0  0  0  0  0  0  0  0  0  0  0
    5.7158   -4.1250    0.0000 C   0  0  0  0  0  0  0  0  0  0  0  0
    5.7158   -4.9500    0.0000 O   0  0  0  0  0  0  0  0  0  0  0  0
    6.4302   -3.7125    0.0000 C   0  0  0  0  0  0  0  0  0  0  0  0
    7.1447   -4.1250    0.0000 C   0  0  0  0  0  0  0  0  0  0  0  0
    7.8592   -3.7125    0.0000 N   0  0  0  0  0  0  0  0  0  0  0  0
  1  2  1  0  0  0  0
  2  3  1  0  0  0  0
  2  4  1  0  0  0  0
  4  5  2  0  0  0  0
  5  6  1  0  0  0  0
  6  7  1  0  0  0  0
  7  8  1  0  0  0  0
  7  9  1  0  0  0  0
  6 10  2  0  0  0  0
 10 11  1  0  0  0  0
 11 12  2  0  0  0  0
  4 12  1  0  0  0  0
 11 13  1  0  0  0  0
 13 14  1  0  0  0  0
 13 15  1  0  0  0  0
 10 16  1  0  0  0  0
 16 17  2  0  0  0  0
 16 18  2  0  0  0  0
 16 19  1  0  0  0  0
 20 19  1  1  0  0  0
 20 21  1  0  0  0  0
 21 22  1  0  0  0  0
 22 23  2  0  0  0  0
 23 24  1  0  0  0  0
 24 25  2  0  0  0  0
 25 26  1  0  0  0  0
 26 27  2  0  0  0  0
 22 27  1  0  0  0  0
 26 28  1  0  0  0  0
 28 29  1  0  0  0  0
 28 30  2  0  0  0  0
 20 31  1  0  0  0  0
 31 32  2  0  0  0  0
 31 33  1  0  0  0  0
 33 34  1  0  0  0  0
 34 35  1  0  0  0  0
 35 36  1  0  0  0  0
 36 37  1  0  0  0  0
 37 38  1  0  0  0  0
 33 38  1  0  0  0  0
 36 39  1  0  0  0  0
 39 40  2  0  0  0  0
 39 41  1  0  0  0  0
 41 42  1  0  0  0  0
 42 43  1  0  0  0  0
M  END
> <DRUGBANK_ID>
DB04172

> <DRUG_GROUPS>
experimental

> <GENERIC_NAME>
[2,4,6-Triisopropyl-Phenylsulfonyl-L-[3-Amidino-Phenylalanine]]-Piperazine-N'-Beta-Alanine

> <CHEMICAL_FORMULA>
C32H48N6O4S

> <MOLECULAR_WEIGHT>
612.826

> <EXACT_MASS>
612.345774744

> <IUPAC_NAME>
3-[(2R)-3-[4-(3-aminopropanoyl)piperazin-1-yl]-3-oxo-2-{[2,4,6-tris(propan-2-yl)benzene]sulfonamido}propyl]benzene-1-carboximidamide

> <IUPAC_TRADITIONAL_NAME>
3-[(2R)-3-[4-(3-aminopropanoyl)piperazin-1-yl]-3-oxo-2-(2,4,6-triisopropylbenzenesulfonamido)propyl]benzenecarboximidamide

> <INCHI_IDENTIFIER>
InChI=1S/C32H48N6O4S/c1-20(2)25-18-26(21(3)4)30(27(19-25)22(5)6)43(41,42)36-28(17-23-8-7-9-24(16-23)31(34)35)32(40)38-14-12-37(13-15-38)29(39)10-11-33/h7-9,16,18-22,28,36H,10-15,17,33H2,1-6H3,(H3,34,35)/t28-/m1/s1

> <INCHI_KEY>
InChIKey=WATXEHGLYJKXOF-MUUNZHRXSA-N

> <SMILES>
CC(C)C1=CC(C(C)C)=C(C(=C1)C(C)C)S(=O)(=O)N[C@H](CC1=CC=CC(=C1)C(N)=N)C(=O)N1CCN(CC1)C(=O)CCN

> <JCHEM_ACCEPTOR_COUNT>
7

> <JCHEM_DONOR_COUNT>
4

> <JCHEM_ACIDIC_PKA>
10.56

> <JCHEM_BASIC_PKA>
11.51

> <JCHEM_PHYSIOLOGICAL_CHARGE>
2

> <ALOGPS_LOGP>
2.15

> <JCHEM_LOGP>
2.77

> <ALOGPS_LOGS>
-4.8

> <JCHEM_POLARIZABILITY>
67.7

> <JCHEM_POLAR_SURFACE_AREA>
162.68

> <JCHEM_REFRACTIVITY>
182.55

> <JCHEM_ROTATABLE_BOND_COUNT>
11

> <ALOGPS_SOLUBILITY>
8.71e-03 g/l __ 

$$$$
