
  Mrv0541 02231217342D          

 53 56  0  0  1  0            999 V2000
   -0.7145   -4.5375    0.0000 N   0  0  0  0  0  0  0  0  0  0  0  0
    0.0000   -4.9500    0.0000 C   0  0  0  0  0  0  0  0  0  0  0  0
    0.0000   -5.7750    0.0000 N   0  0  0  0  0  0  0  0  0  0  0  0
    0.7145   -4.5375    0.0000 N   0  0  0  0  0  0  0  0  0  0  0  0
    1.4289   -4.9500    0.0000 C   0  0  0  0  0  0  0  0  0  0  0  0
    2.1434   -4.5375    0.0000 C   0  0  0  0  0  0  0  0  0  0  0  0
    2.8579   -4.9500    0.0000 C   0  0  0  0  0  0  0  0  0  0  0  0
    3.5724   -4.5375    0.0000 C   0  0  1  0  0  0  0  0  0  0  0  0
    3.5724   -3.7125    0.0000 N   0  0  0  0  0  0  0  0  0  0  0  0
    4.3339   -3.2276    0.0000 C   0  0  0  0  0  0  0  0  0  0  0  0
    4.9861   -3.7327    0.0000 O   0  0  0  0  0  0  0  0  0  0  0  0
    4.5888   -2.4430    0.0000 C   0  0  2  0  0  0  0  0  0  0  0  0
    4.3339   -1.6583    0.0000 C   0  0  0  0  0  0  0  0  0  0  0  0
    5.0013   -1.1734    0.0000 C   0  0  0  0  0  0  0  0  0  0  0  0
    5.6687   -1.6583    0.0000 C   0  0  0  0  0  0  0  0  0  0  0  0
    5.4138   -2.4430    0.0000 N   0  0  0  0  0  0  0  0  0  0  0  0
    5.6687   -3.2276    0.0000 C   0  0  0  0  0  0  0  0  0  0  0  0
    5.2045   -3.9096    0.0000 O   0  0  0  0  0  0  0  0  0  0  0  0
    6.4302   -3.7125    0.0000 C   0  0  2  0  0  0  0  0  0  0  0  0
    6.4302   -4.5375    0.0000 C   0  0  0  0  0  0  0  0  0  0  0  0
    7.1447   -4.9500    0.0000 N   0  0  0  0  0  0  0  0  0  0  0  0
    7.1447   -5.7750    0.0000 C   0  0  0  0  0  0  0  0  0  0  0  0
    6.4302   -6.1875    0.0000 O   0  0  0  0  0  0  0  0  0  0  0  0
    7.8592   -6.1875    0.0000 C   0  0  0  0  0  0  0  0  0  0  0  0
    7.8592   -7.0125    0.0000 C   0  0  0  0  0  0  0  0  0  0  0  0
    7.1447   -7.4250    0.0000 C   0  0  1  0  0  0  0  0  0  0  0  0
    7.1447   -8.2500    0.0000 C   0  0  0  0  0  0  0  0  0  0  0  0
    7.8592   -8.6625    0.0000 C   0  0  0  0  0  0  0  0  0  0  0  0
    8.5737   -8.2500    0.0000 C   0  0  0  0  0  0  0  0  0  0  0  0
    9.2881   -8.6625    0.0000 C   0  0  0  0  0  0  0  0  0  0  0  0
    9.2881   -9.4875    0.0000 C   0  0  0  0  0  0  0  0  0  0  0  0
   10.0026   -9.9000    0.0000 O   0  0  0  0  0  0  0  0  0  0  0  0
    8.5737   -9.9000    0.0000 C   0  0  0  0  0  0  0  0  0  0  0  0
    7.8592   -9.4875    0.0000 C   0  0  0  0  0  0  0  0  0  0  0  0
    6.4302   -7.0125    0.0000 N   0  0  0  0  0  0  0  0  0  0  0  0
    5.7158   -7.4250    0.0000 C   0  0  0  0  0  0  0  0  0  0  0  0
    5.7158   -8.2500    0.0000 O   0  0  0  0  0  0  0  0  0  0  0  0
    5.0013   -7.0125    0.0000 C   0  0  1  0  0  0  0  0  0  0  0  0
    4.2868   -7.4250    0.0000 C   0  0  0  0  0  0  0  0  0  0  0  0
    4.2868   -8.2500    0.0000 C   0  0  0  0  0  0  0  0  0  0  0  0
    5.0013   -8.6625    0.0000 C   0  0  0  0  0  0  0  0  0  0  0  0
    5.0013   -9.4875    0.0000 C   0  0  0  0  0  0  0  0  0  0  0  0
    4.2868   -9.9000    0.0000 C   0  0  0  0  0  0  0  0  0  0  0  0
    3.5724   -9.4875    0.0000 C   0  0  0  0  0  0  0  0  0  0  0  0
    3.5724   -8.6625    0.0000 C   0  0  0  0  0  0  0  0  0  0  0  0
    5.0013   -6.1875    0.0000 N   0  0  0  0  0  0  0  0  0  0  0  0
    4.2868   -5.7750    0.0000 C   0  0  0  0  0  0  0  0  0  0  0  0
    3.5724   -6.1875    0.0000 O   0  0  0  0  0  0  0  0  0  0  0  0
    4.2868   -4.9500    0.0000 C   0  0  0  0  0  0  0  0  0  0  0  0
    5.0013   -4.5375    0.0000 O   0  0  0  0  0  0  0  0  0  0  0  0
    7.1535   -3.3156    0.0000 N   0  0  0  0  0  0  0  0  0  0  0  0
    7.1714   -2.4908    0.0000 C   0  0  0  0  0  0  0  0  0  0  0  0
    7.8947   -2.0939    0.0000 O   0  0  0  0  0  0  0  0  0  0  0  0
  1  2  1  0  0  0  0
  2  3  2  0  0  0  0
  2  4  1  0  0  0  0
  4  5  1  0  0  0  0
  5  6  1  0  0  0  0
  6  7  1  0  0  0  0
  8  7  1  1  0  0  0
  8  9  1  0  0  0  0
  9 10  1  0  0  0  0
 10 11  2  0  0  0  0
 10 12  1  0  0  0  0
 12 13  1  0  0  0  0
 13 14  1  0  0  0  0
 14 15  1  0  0  0  0
 15 16  1  0  0  0  0
 12 16  1  6  0  0  0
 16 17  1  0  0  0  0
 17 18  2  0  0  0  0
 17 19  1  0  0  0  0
 19 20  1  0  0  0  0
 20 21  1  0  0  0  0
 21 22  1  0  0  0  0
 22 23  2  0  0  0  0
 22 24  1  0  0  0  0
 24 25  2  0  0  0  0
 25 26  1  0  0  0  0
 26 27  1  1  0  0  0
 27 28  1  0  0  0  0
 28 29  2  0  0  0  0
 29 30  1  0  0  0  0
 30 31  2  0  0  0  0
 31 32  1  0  0  0  0
 31 33  1  0  0  0  0
 33 34  2  0  0  0  0
 28 34  1  0  0  0  0
 26 35  1  0  0  0  0
 35 36  1  0  0  0  0
 36 37  2  0  0  0  0
 36 38  1  0  0  0  0
 38 39  1  1  0  0  0
 39 40  1  0  0  0  0
 40 41  2  0  0  0  0
 41 42  1  0  0  0  0
 42 43  2  0  0  0  0
 43 44  1  0  0  0  0
 44 45  2  0  0  0  0
 40 45  1  0  0  0  0
 38 46  1  0  0  0  0
 46 47  1  0  0  0  0
 47 48  2  0  0  0  0
 47 49  1  0  0  0  0
  8 49  1  0  0  0  0
 49 50  2  0  0  0  0
 19 51  1  1  0  0  0
 51 52  1  0  0  0  0
 52 53  2  0  0  0  0
M  END
> <DRUGBANK_ID>
DB04269

> <DRUG_GROUPS>
experimental

> <GENERIC_NAME>
Cyclotheonamide A

> <CHEMICAL_FORMULA>
C36H45N9O8

> <MOLECULAR_WEIGHT>
731.798

> <EXACT_MASS>
731.339109461

> <IUPAC_NAME>
N-[(3R,7R,10R,16S,21aS)-7-benzyl-3-(3-carbamimidamidopropyl)-10-[(4-hydroxyphenyl)methyl]-1,4,5,8,13,17-hexaoxo-1H,2H,3H,4H,5H,6H,7H,8H,9H,10H,13H,14H,15H,16H,17H,19H,20H,21H,21aH-pyrrolo[2,1-j]1,4,8,11,15-pentaazacyclononadecan-16-yl]formamide

> <IUPAC_TRADITIONAL_NAME>
cyclotheonamide A

> <INCHI_IDENTIFIER>
InChI=1S/C36H45N9O8/c37-36(38)39-16-4-8-26-31(49)34(52)44-27(19-22-6-2-1-3-7-22)32(50)42-24(18-23-10-13-25(47)14-11-23)12-15-30(48)40-20-28(41-21-46)35(53)45-17-5-9-29(45)33(51)43-26/h1-3,6-7,10-15,21,24,26-29,47H,4-5,8-9,16-20H2,(H,40,48)(H,41,46)(H,42,50)(H,43,51)(H,44,52)(H4,37,38,39)/b15-12-/t24-,26+,27+,28-,29-/m0/s1

> <INCHI_KEY>
InChIKey=CDWXSPKJKIUEQF-AOLOITIXSA-N

> <SMILES>
NC(=N)NCCC[C@H]1NC(=O)[C@@H]2CCCN2C(=O)[C@H](CNC(=O)\C=C/[C@@H](CC2=CC=C(O)C=C2)NC(=O)[C@@H](CC2=CC=CC=C2)NC(=O)C1=O)NC=O

> <JCHEM_ACCEPTOR_COUNT>
11

> <JCHEM_DONOR_COUNT>
9

> <JCHEM_ACIDIC_PKA>
9.5

> <JCHEM_BASIC_PKA>
11.94

> <JCHEM_PHYSIOLOGICAL_CHARGE>
1

> <ALOGPS_LOGP>
-0.36

> <JCHEM_LOGP>
-1.4

> <ALOGPS_LOGS>
-4.2

> <JCHEM_POLARIZABILITY>
75.02

> <JCHEM_POLAR_SURFACE_AREA>
265.01

> <JCHEM_REFRACTIVITY>
202.64

> <JCHEM_ROTATABLE_BOND_COUNT>
9

> <ALOGPS_SOLUBILITY>
4.53e-02 g/l __ 

$$$$
