
  Mrv0541 02231217522D          

 52 56  0  0  1  0            999 V2000
    6.3235   -3.7741    0.0000 N   0  0  0  0  0  0  0  0  0  0  0  0
    6.3235   -2.9491    0.0000 C   0  0  0  0  0  0  0  0  0  0  0  0
    5.6091   -2.5366    0.0000 C   0  0  2  0  0  0  0  0  0  0  0  0
    4.8946   -2.9491    0.0000 O   0  0  0  0  0  0  0  0  0  0  0  0
    4.1801   -2.5366    0.0000 C   0  0  2  0  0  0  0  0  0  0  0  0
    3.4656   -2.9491    0.0000 O   0  0  0  0  0  0  0  0  0  0  0  0
    3.4656   -3.7741    0.0000 C   0  0  2  0  0  0  0  0  0  0  0  0
    4.1331   -4.2590    0.0000 C   0  0  1  0  0  0  0  0  0  0  0  0
    4.9177   -4.0041    0.0000 C   0  0  0  0  0  0  0  0  0  0  0  0
    5.5308   -4.5561    0.0000 O   0  0  0  0  0  0  0  0  0  0  0  0
    3.8781   -5.0437    0.0000 O   0  0  0  0  0  0  0  0  0  0  0  0
    3.0531   -5.0437    0.0000 C   0  0  1  0  0  0  0  0  0  0  0  0
    2.5682   -5.7111    0.0000 O   0  0  0  0  0  0  0  0  0  0  0  0
    2.9038   -6.4648    0.0000 C   0  0  2  0  0  0  0  0  0  0  0  0
    2.4189   -7.1322    0.0000 C   0  0  1  0  0  0  0  0  0  0  0  0
    1.5984   -7.0460    0.0000 O   0  0  0  0  0  0  0  0  0  0  0  0
    2.7544   -7.8859    0.0000 C   0  0  2  0  0  0  0  0  0  0  0  0
    2.2695   -8.5533    0.0000 N   0  0  0  0  0  0  0  0  0  0  0  0
    3.5749   -7.9721    0.0000 C   0  0  0  0  0  0  0  0  0  0  0  0
    4.0598   -7.3047    0.0000 C   0  0  2  0  0  0  0  0  0  0  0  0
    4.8803   -7.3909    0.0000 N   0  0  0  0  0  0  0  0  0  0  0  0
    3.7243   -6.5510    0.0000 C   0  0  1  0  0  0  0  0  0  0  0  0
    4.2092   -5.8836    0.0000 O   0  0  0  0  0  0  0  0  0  0  0  0
    5.0297   -5.9698    0.0000 C   0  0  1  0  0  0  0  0  0  0  0  0
    5.3652   -6.7235    0.0000 O   0  0  0  0  0  0  0  0  0  0  0  0
    6.1857   -6.8097    0.0000 C   0  0  2  0  0  0  0  0  0  0  0  0
    6.5213   -7.5634    0.0000 C   0  0  0  0  0  0  0  0  0  0  0  0
    7.3417   -7.6496    0.0000 O   0  0  0  0  0  0  0  0  0  0  0  0
    6.6706   -6.1423    0.0000 C   0  0  1  0  0  0  0  0  0  0  0  0
    7.4911   -6.2285    0.0000 O   0  0  0  0  0  0  0  0  0  0  0  0
    6.3351   -5.3886    0.0000 C   0  0  2  0  0  0  0  0  0  0  0  0
    6.8200   -4.7212    0.0000 O   0  0  0  0  0  0  0  0  0  0  0  0
    5.5146   -5.3024    0.0000 C   0  0  1  0  0  0  0  0  0  0  0  0
    5.1790   -4.5487    0.0000 N   0  0  0  0  0  0  0  0  0  0  0  0
    2.7982   -4.2590    0.0000 C   0  0  2  0  0  0  0  0  0  0  0  0
    2.0136   -4.0041    0.0000 O   0  0  0  0  0  0  0  0  0  0  0  0
    1.8421   -3.1971    0.0000 C   0  0  0  0  0  0  0  0  0  0  0  0
    1.0574   -2.9422    0.0000 C   0  0  0  0  0  0  0  0  0  0  0  0
    0.8859   -2.1352    0.0000 N   0  0  0  0  0  0  0  0  0  0  0  0
    0.1013   -1.8803    0.0000 C   0  0  0  0  0  0  0  0  0  0  0  0
   -0.0702   -1.0733    0.0000 C   0  0  2  0  0  0  0  0  0  0  0  0
   -0.8549   -0.8184    0.0000 C   0  0  0  0  0  0  0  0  0  0  0  0
   -1.0264   -0.0114    0.0000 C   0  0  0  0  0  0  0  0  0  0  0  0
   -0.4133    0.5406    0.0000 C   0  0  0  0  0  0  0  0  0  0  0  0
    0.3713    0.2857    0.0000 N   0  0  0  0  0  0  0  0  0  0  0  0
    0.5429   -0.5213    0.0000 C   0  0  0  0  0  0  0  0  0  0  0  0
    4.1801   -1.7116    0.0000 C   0  0  2  0  0  0  0  0  0  0  0  0
    3.4656   -1.2991    0.0000 N   0  0  0  0  0  0  0  0  0  0  0  0
    4.8946   -1.2991    0.0000 C   0  0  1  0  0  0  0  0  0  0  0  0
    4.8946   -0.4741    0.0000 O   0  0  0  0  0  0  0  0  0  0  0  0
    5.6091   -1.7116    0.0000 C   0  0  2  0  0  0  0  0  0  0  0  0
    6.3235   -1.2991    0.0000 O   0  0  0  0  0  0  0  0  0  0  0  0
  1  2  1  0  0  0  0
  3  2  1  6  0  0  0
  3  4  1  0  0  0  0
  4  5  1  0  0  0  0
  5  6  1  6  0  0  0
  7  6  1  6  0  0  0
  7  8  1  0  0  0  0
  8  9  1  1  0  0  0
  9 10  1  0  0  0  0
  8 11  1  0  0  0  0
 11 12  1  0  0  0  0
 12 13  1  1  0  0  0
 14 13  1  1  0  0  0
 14 15  1  0  0  0  0
 15 16  1  6  0  0  0
 15 17  1  0  0  0  0
 17 18  1  1  0  0  0
 17 19  1  0  0  0  0
 19 20  1  0  0  0  0
 20 21  1  1  0  0  0
 20 22  1  0  0  0  0
 14 22  1  0  0  0  0
 22 23  1  6  0  0  0
 24 23  1  6  0  0  0
 24 25  1  0  0  0  0
 25 26  1  0  0  0  0
 26 27  1  1  0  0  0
 27 28  1  0  0  0  0
 26 29  1  0  0  0  0
 29 30  1  6  0  0  0
 29 31  1  0  0  0  0
 31 32  1  1  0  0  0
 31 33  1  0  0  0  0
 24 33  1  0  0  0  0
 33 34  1  6  0  0  0
 12 35  1  0  0  0  0
  7 35  1  0  0  0  0
 35 36  1  6  0  0  0
 36 37  1  0  0  0  0
 37 38  1  0  0  0  0
 38 39  1  0  0  0  0
 39 40  1  0  0  0  0
 41 40  1  6  0  0  0
 41 42  1  0  0  0  0
 42 43  1  0  0  0  0
 43 44  1  0  0  0  0
 44 45  1  0  0  0  0
 45 46  1  0  0  0  0
 41 46  1  0  0  0  0
  5 47  1  0  0  0  0
 47 48  1  6  0  0  0
 47 49  1  0  0  0  0
 49 50  1  1  0  0  0
 49 51  1  0  0  0  0
  3 51  1  0  0  0  0
 51 52  1  6  0  0  0
M  END
> <DRUGBANK_ID>
DB04718

> <DRUG_GROUPS>
experimental

> <GENERIC_NAME>
(2S,3S,4R,5R,6R)-5-Amino-2-(Aminomethyl)-6-((2R,3R,4R,5S)-5-((1R,2R,3S,5R,6S)-3,5-Diamino-2-((2S,3R,4R,5S,6R)-3-amino-4,5-dihydroxy-6-(hydroxymethyl)-tetrahydro-2H-pyran-2-yloxy)-6-hydroxycyclohexyloxy)-2-(hydroxymethyl)-4-(2-((R)-piperidin-3-ylmethylamin

> <SYNONYMS>


> <CHEMICAL_FORMULA>
C31H61N7O14

> <MOLECULAR_WEIGHT>
755.8545

> <EXACT_MASS>
755.427649695

> <IUPAC_NAME>
(2S,3S,4R,5R,6R)-5-amino-2-(aminomethyl)-6-{[(2R,3R,4R,5S)-5-{[(1R,2R,3S,5R,6S)-3,5-diamino-2-{[(2S,3R,4R,5S,6R)-3-amino-4,5-dihydroxy-6-(hydroxymethyl)oxan-2-yl]oxy}-6-hydroxycyclohexyl]oxy}-2-(hydroxymethyl)-4-(2-{[(3R)-piperidin-3-ylmethyl]amino}ethoxy)oxolan-3-yl]oxy}oxane-3,4-diol

> <IUPAC_TRADITIONAL_NAME>
JS5

> <INCHI_IDENTIFIER>
InChI=1S/C31H61N7O14/c32-7-15-21(42)23(44)18(35)29(47-15)51-26-17(11-40)49-31(28(26)46-5-4-38-9-12-2-1-3-37-8-12)52-27-20(41)13(33)6-14(34)25(27)50-30-19(36)24(45)22(43)16(10-39)48-30/h12-31,37-45H,1-11,32-36H2/t12-,13-,14+,15+,16-,17-,18-,19-,20+,21-,22-,23-,24-,25-,26-,27-,28-,29-,30-,31+/m1/s1

> <INCHI_KEY>
InChIKey=AHJDGUQMOYBKDU-WUTRCVLTSA-N

> <SMILES>
NC[C@@H]1O[C@H](O[C@@H]2[C@@H](CO)O[C@@H](O[C@@H]3[C@@H](O)[C@H](N)C[C@H](N)[C@H]3O[C@H]3O[C@H](CO)[C@@H](O)[C@H](O)[C@H]3N)[C@@H]2OCCNC[C@@H]2CCCNC2)[C@H](N)[C@@H](O)[C@@H]1O

> <JCHEM_ACCEPTOR_COUNT>
21

> <JCHEM_DONOR_COUNT>
14

> <JCHEM_ACIDIC_PKA>
13.09

> <JCHEM_BASIC_PKA>
10.66

> <JCHEM_PHYSIOLOGICAL_CHARGE>
7

> <ALOGPS_LOGP>
-2.4

> <JCHEM_LOGP>
-7.9

> <ALOGPS_LOGS>
-1.4

> <JCHEM_POLARIZABILITY>
77.86

> <JCHEM_POLAR_SURFACE_AREA>
360.38

> <JCHEM_REFRACTIVITY>
176.59

> <JCHEM_ROTATABLE_BOND_COUNT>
15

> <ALOGPS_SOLUBILITY>
2.77e+01 g/l __ 

$$$$
