
  Mrv0541 02231217462D          

 22 23  0  0  1  0            999 V2000
   -1.3222    0.7634    0.0000 C   0  0  0  0  0  0  0  0  0  0  0  0
   -1.3222   -0.0616    0.0000 C   0  0  2  0  0  0  0  0  0  0  0  0
   -2.0367   -0.4741    0.0000 O   0  0  0  0  0  0  0  0  0  0  0  0
   -0.6078   -0.4741    0.0000 C   0  0  1  0  0  0  0  0  0  0  0  0
    0.1067   -0.0616    0.0000 N   0  0  0  0  0  0  0  0  0  0  0  0
   -0.6078   -1.2991    0.0000 C   0  0  0  0  0  0  0  0  0  0  0  0
    0.0597   -1.7840    0.0000 N   0  0  0  0  0  0  0  0  0  0  0  0
   -0.1953   -2.5687    0.0000 C   0  0  0  0  0  0  0  0  0  0  0  0
    0.2897   -3.2361    0.0000 C   0  0  0  0  0  0  0  0  0  0  0  0
    1.1101   -3.1499    0.0000 C   0  0  0  0  0  0  0  0  0  0  0  0
    1.4457   -2.3962    0.0000 C   0  0  0  0  0  0  0  0  0  0  0  0
    2.2662   -2.3099    0.0000 C   0  0  0  0  0  0  0  0  0  0  0  0
    2.7511   -2.9774    0.0000 C   0  0  0  0  0  0  0  0  0  0  0  0
    3.5716   -2.8911    0.0000 O   0  0  0  0  0  0  0  0  0  0  0  0
    2.4155   -3.7311    0.0000 C   0  0  0  0  0  0  0  0  0  0  0  0
    1.5951   -3.8173    0.0000 C   0  0  0  0  0  0  0  0  0  0  0  0
   -1.0203   -2.5687    0.0000 C   0  0  0  0  0  0  0  0  0  0  0  0
   -1.5052   -3.2361    0.0000 O   0  0  0  0  0  0  0  0  0  0  0  0
   -1.2752   -1.7840    0.0000 N   0  0  0  0  0  0  0  0  0  0  0  0
   -2.0598   -1.5291    0.0000 C   0  0  0  0  0  0  0  0  0  0  0  0
   -2.6729   -2.0811    0.0000 C   0  0  0  0  0  0  0  0  0  0  0  0
   -3.4575   -1.8262    0.0000 O   0  0  0  0  0  0  0  0  0  0  0  0
  1  2  1  0  0  0  0
  2  3  1  1  0  0  0
  2  4  1  0  0  0  0
  4  5  1  1  0  0  0
  4  6  1  0  0  0  0
  6  7  2  0  0  0  0
  7  8  1  0  0  0  0
  8  9  2  0  0  0  0
  9 10  1  0  0  0  0
 10 11  2  0  0  0  0
 11 12  1  0  0  0  0
 12 13  2  0  0  0  0
 13 14  1  0  0  0  0
 13 15  1  0  0  0  0
 15 16  2  0  0  0  0
 10 16  1  0  0  0  0
  8 17  1  0  0  0  0
 17 18  2  0  0  0  0
 17 19  1  0  0  0  0
  6 19  1  0  0  0  0
 19 20  1  0  0  0  0
 20 21  1  0  0  0  0
 21 22  2  0  0  0  0
M  END
> <DRUGBANK_ID>
DB04567

> <DRUG_GROUPS>
experimental

> <GENERIC_NAME>
Chromophore (Gly-Tyr-Gly)

> <CHEMICAL_FORMULA>
C15H17N3O4

> <MOLECULAR_WEIGHT>
303.3132

> <EXACT_MASS>
303.121906047

> <IUPAC_NAME>
2-[(4Z)-2-[(1S,2S)-1-amino-2-hydroxypropyl]-4-[(4-hydroxyphenyl)methylidene]-5-oxo-4,5-dihydro-1H-imidazol-1-yl]acetaldehyde

> <IUPAC_TRADITIONAL_NAME>
chromophore (gly-tyr-gly)

> <INCHI_IDENTIFIER>
InChI=1S/C15H17N3O4/c1-9(20)13(16)14-17-12(15(22)18(14)6-7-19)8-10-2-4-11(21)5-3-10/h2-5,7-9,13,20-21H,6,16H2,1H3/b12-8-/t9-,13+/m0/s1

> <INCHI_KEY>
InChIKey=MRAAQGZJTBRUBQ-ATRXRJDZSA-N

> <SMILES>
C[C@H](O)[C@@H](N)C1=N\C(=C/C2=CC=C(O)C=C2)C(=O)N1CC=O

> <JCHEM_ACCEPTOR_COUNT>
6

> <JCHEM_DONOR_COUNT>
3

> <JCHEM_ACIDIC_PKA>
9.23

> <JCHEM_BASIC_PKA>
7.36

> <JCHEM_PHYSIOLOGICAL_CHARGE>
1

> <ALOGPS_LOGP>
0.42

> <JCHEM_LOGP>
-0.84

> <ALOGPS_LOGS>
-2.8

> <JCHEM_POLARIZABILITY>
31.17

> <JCHEM_POLAR_SURFACE_AREA>
116.22

> <JCHEM_REFRACTIVITY>
80.96

> <JCHEM_ROTATABLE_BOND_COUNT>
5

> <ALOGPS_SOLUBILITY>
4.77e-01 g/l __ 

$$$$
