DEM
  Mrv0541 02231217242D          

 13 12  0  0  0  0            999 V2000
   -3.9449    0.1906    0.0000 C   0  0  0  0  0  0  0  0  0  0  0  0
   -2.5159    0.1906    0.0000 C   0  0  0  0  0  0  0  0  0  0  0  0
   -1.8013   -0.2219    0.0000 C   0  0  0  0  0  0  0  0  0  0  0  0
   -1.0868    0.1906    0.0000 C   0  0  0  0  0  0  0  0  0  0  0  0
   -0.3723   -0.2219    0.0000 C   0  0  0  0  0  0  0  0  0  0  0  0
    0.3422    0.1906    0.0000 C   0  0  0  0  0  0  0  0  0  0  0  0
    1.0568   -0.2219    0.0000 C   0  0  0  0  0  0  0  0  0  0  0  0
    1.7713    0.1906    0.0000 C   0  0  0  0  0  0  0  0  0  0  0  0
    2.4858   -0.2219    0.0000 C   0  0  0  0  0  0  0  0  0  0  0  0
    3.2003    0.1906    0.0000 C   0  0  0  0  0  0  0  0  0  0  0  0
    3.9149   -0.2219    0.0000 C   0  0  0  0  0  0  0  0  0  0  0  0
   -3.2303   -0.2219    0.0000 O   0  0  0  0  0  0  0  0  0  0  0  0
   -4.6594   -0.2219    0.0000 O   0  0  0  0  0  0  0  0  0  0  0  0
  1 12  1  0  0  0  0
  1 13  1  0  0  0  0
  2  3  1  0  0  0  0
  2 12  1  0  0  0  0
  3  4  1  0  0  0  0
  4  5  1  0  0  0  0
  5  6  1  0  0  0  0
  6  7  1  0  0  0  0
  7  8  1  0  0  0  0
  8  9  1  0  0  0  0
  9 10  1  0  0  0  0
 10 11  1  0  0  0  0
M  END
> <DRUGBANK_ID>
DB04082

> <DRUG_GROUPS>
experimental

> <GENERIC_NAME>
Decyloxy-Methanol

> <CHEMICAL_FORMULA>
C11H24O2

> <MOLECULAR_WEIGHT>
188.3071

> <EXACT_MASS>
188.177630012

> <IUPAC_NAME>
(decyloxy)methanol

> <IUPAC_TRADITIONAL_NAME>
decyloxy-methanol

> <INCHI_IDENTIFIER>
InChI=1S/C11H24O2/c1-2-3-4-5-6-7-8-9-10-13-11-12/h12H,2-11H2,1H3

> <INCHI_KEY>
InChIKey=CDMVCFBAVCCGIE-UHFFFAOYSA-N

> <SMILES>
CCCCCCCCCCOCO

> <JCHEM_ACCEPTOR_COUNT>
2

> <JCHEM_DONOR_COUNT>
1

> <JCHEM_ACIDIC_PKA>
13.06

> <JCHEM_BASIC_PKA>
-3.6

> <JCHEM_PHYSIOLOGICAL_CHARGE>
0

> <ALOGPS_LOGP>
4.07

> <JCHEM_LOGP>
3.54

> <ALOGPS_LOGS>
-3.5

> <JCHEM_POLARIZABILITY>
24.87

> <JCHEM_POLAR_SURFACE_AREA>
29.46

> <JCHEM_REFRACTIVITY>
55.59

> <JCHEM_ROTATABLE_BOND_COUNT>
10

> <ALOGPS_SOLUBILITY>
5.47e-02 g/l __ 

$$$$
