
  Mrv0541 02231217422D          

 11 11  0  0  1  0            999 V2000
   -0.7145    2.0625    0.0000 N   0  0  0  0  0  0  0  0  0  0  0  0
    0.0000    2.4750    0.0000 C   0  0  2  0  0  0  0  0  0  0  0  0
    0.0000    3.3000    0.0000 C   0  0  0  0  0  0  0  0  0  0  0  0
   -0.7145    3.7125    0.0000 O   0  0  0  0  0  0  0  0  0  0  0  0
    0.7145    2.0625    0.0000 C   0  0  0  0  0  0  0  0  0  0  0  0
    0.7145    1.2375    0.0000 C   0  0  0  0  0  0  0  0  0  0  0  0
    1.4289    0.8250    0.0000 C   0  0  0  0  0  0  0  0  0  0  0  0
    1.4289    0.0000    0.0000 C   0  0  0  0  0  0  0  0  0  0  0  0
    0.7145   -0.4125    0.0000 C   0  0  0  0  0  0  0  0  0  0  0  0
    0.0000    0.0000    0.0000 C   0  0  0  0  0  0  0  0  0  0  0  0
    0.0000    0.8250    0.0000 C   0  0  0  0  0  0  0  0  0  0  0  0
  2  1  1  6  0  0  0
  2  3  1  0  0  0  0
  3  4  1  0  0  0  0
  2  5  1  0  0  0  0
  5  6  1  0  0  0  0
  6  7  2  0  0  0  0
  7  8  1  0  0  0  0
  8  9  2  0  0  0  0
  9 10  1  0  0  0  0
 10 11  2  0  0  0  0
  6 11  1  0  0  0  0
M  END
> <DRUGBANK_ID>
DB04484

> <DRUG_GROUPS>
experimental

> <GENERIC_NAME>
L-Phenylalaninol

> <SYNONYMS>


> <CHEMICAL_FORMULA>
C9H13NO

> <MOLECULAR_WEIGHT>
151.2056

> <EXACT_MASS>
151.099714043

> <IUPAC_NAME>
(2S)-2-amino-3-phenylpropan-1-ol

> <IUPAC_TRADITIONAL_NAME>
L-phenylalaninol

> <INCHI_IDENTIFIER>
InChI=1S/C9H13NO/c10-9(7-11)6-8-4-2-1-3-5-8/h1-5,9,11H,6-7,10H2/t9-/m0/s1

> <INCHI_KEY>
InChIKey=STVVMTBJNDTZBF-VIFPVBQESA-N

> <SMILES>
N[C@H](CO)CC1=CC=CC=C1

> <JCHEM_ACCEPTOR_COUNT>
2

> <JCHEM_DONOR_COUNT>
2

> <JCHEM_ACIDIC_PKA>
15.12

> <JCHEM_BASIC_PKA>
9.41

> <JCHEM_PHYSIOLOGICAL_CHARGE>
1

> <ALOGPS_LOGP>
0.61

> <JCHEM_LOGP>
0.76

> <ALOGPS_LOGS>
-1.2

> <JCHEM_POLARIZABILITY>
17.12

> <JCHEM_POLAR_SURFACE_AREA>
46.25

> <JCHEM_REFRACTIVITY>
45.25

> <JCHEM_ROTATABLE_BOND_COUNT>
3

> <ALOGPS_SOLUBILITY>
1.03e+01 g/l __ 

$$$$
