
  Mrv0541 02231217282D          

 34 38  0  0  1  0            999 V2000
    0.2122    0.6611    0.0000 O   0  0  0  0  0  0  0  0  0  0  0  0
    0.0407   -0.1459    0.0000 O   0  0  0  0  0  0  0  0  0  0  0  0
    0.6538   -0.6979    0.0000 C   0  0  1  0  0  0  0  0  0  0  0  0
    0.0407   -1.2500    0.0000 C   0  0  0  0  0  0  0  0  0  0  0  0
   -0.7439   -0.9950    0.0000 C   0  0  0  0  0  0  0  0  0  0  0  0
   -1.3570   -1.5471    0.0000 C   0  0  0  0  0  0  0  0  0  0  0  0
   -2.1416   -1.2921    0.0000 C   0  0  0  0  0  0  0  0  0  0  0  0
   -2.3132   -0.4852    0.0000 C   0  0  0  0  0  0  0  0  0  0  0  0
   -3.0978   -0.2302    0.0000 I   0  0  0  0  0  0  0  0  0  0  0  0
   -1.7001    0.0669    0.0000 C   0  0  0  0  0  0  0  0  0  0  0  0
   -0.9154   -0.1881    0.0000 C   0  0  0  0  0  0  0  0  0  0  0  0
    1.1387   -0.0305    0.0000 N   0  0  0  0  0  0  0  0  0  0  0  0
    1.9233   -0.2854    0.0000 C   0  0  0  0  0  0  0  0  0  0  0  0
    2.6378    0.1271    0.0000 C   0  0  2  0  0  0  0  0  0  0  0  0
    2.6378    0.9521    0.0000 C   0  0  0  0  0  0  0  0  0  0  0  0
    3.3523    1.3646    0.0000 C   0  0  0  0  0  0  0  0  0  0  0  0
    3.3523    2.1896    0.0000 C   0  0  0  0  0  0  0  0  0  0  0  0
    4.0668    2.6021    0.0000 C   0  0  0  0  0  0  0  0  0  0  0  0
    4.7812    2.1896    0.0000 C   0  0  0  0  0  0  0  0  0  0  0  0
    4.7812    1.3646    0.0000 C   0  0  0  0  0  0  0  0  0  0  0  0
    4.0668    0.9521    0.0000 C   0  0  0  0  0  0  0  0  0  0  0  0
    3.3523   -0.2854    0.0000 N   0  0  0  0  0  0  0  0  0  0  0  0
    3.3523   -1.1104    0.0000 C   0  0  0  0  0  0  0  0  0  0  0  0
    2.6378   -1.5229    0.0000 C   0  0  0  0  0  0  0  0  0  0  0  0
    1.9233   -1.1104    0.0000 N   0  0  0  0  0  0  0  0  0  0  0  0
    1.1387   -1.3654    0.0000 C   0  0  0  0  0  0  0  0  0  0  0  0
    0.8838   -2.1500    0.0000 O   0  0  0  0  0  0  0  0  0  0  0  0
    4.0668   -1.5229    0.0000 C   0  0  0  0  0  0  0  0  0  0  0  0
    4.7812   -1.1104    0.0000 C   0  0  0  0  0  0  0  0  0  0  0  0
    5.4957   -1.5229    0.0000 C   0  0  0  0  0  0  0  0  0  0  0  0
    5.4957   -2.3479    0.0000 C   0  0  0  0  0  0  0  0  0  0  0  0
    6.2102   -2.7604    0.0000 O   0  0  0  0  0  0  0  0  0  0  0  0
    4.7812   -2.7604    0.0000 C   0  0  0  0  0  0  0  0  0  0  0  0
    4.0668   -2.3479    0.0000 C   0  0  0  0  0  0  0  0  0  0  0  0
  1  2  1  0  0  0  0
  3  2  1  1  0  0  0
  3  4  1  6  0  0  0
  4  5  1  0  0  0  0
  5  6  2  0  0  0  0
  6  7  1  0  0  0  0
  7  8  2  0  0  0  0
  8  9  1  0  0  0  0
  8 10  1  0  0  0  0
 10 11  2  0  0  0  0
  5 11  1  0  0  0  0
  3 12  1  0  0  0  0
 12 13  2  0  0  0  0
 13 14  1  0  0  0  0
 14 15  1  6  0  0  0
 15 16  1  0  0  0  0
 16 17  2  0  0  0  0
 17 18  1  0  0  0  0
 18 19  2  0  0  0  0
 19 20  1  0  0  0  0
 20 21  2  0  0  0  0
 16 21  1  0  0  0  0
 14 22  1  0  0  0  0
 22 23  1  0  0  0  0
 23 24  2  0  0  0  0
 24 25  1  0  0  0  0
 13 25  1  0  0  0  0
 25 26  1  0  0  0  0
  3 26  1  0  0  0  0
 26 27  2  0  0  0  0
 23 28  1  0  0  0  0
 28 29  2  0  0  0  0
 29 30  1  0  0  0  0
 30 31  2  0  0  0  0
 31 32  1  0  0  0  0
 31 33  1  0  0  0  0
 33 34  2  0  0  0  0
 28 34  1  0  0  0  0
M  END
> <DRUGBANK_ID>
DB04146

> <DRUG_GROUPS>
experimental

> <GENERIC_NAME>
I-Coeleneterazine

> <CHEMICAL_FORMULA>
C26H22IN3O4

> <MOLECULAR_WEIGHT>
567.375

> <EXACT_MASS>
567.065499627

> <IUPAC_NAME>
(2R,8S)-8-benzyl-2-hydroperoxy-6-(4-hydroxyphenyl)-2-[(4-iodophenyl)methyl]-2H,3H,7H,8H-imidazo[1,2-a]pyrazin-3-one

> <IUPAC_TRADITIONAL_NAME>
I-coeleneterazine

> <INCHI_IDENTIFIER>
InChI=1S/C26H22IN3O4/c27-20-10-6-18(7-11-20)15-26(34-33)25(32)30-16-23(19-8-12-21(31)13-9-19)28-22(24(30)29-26)14-17-4-2-1-3-5-17/h1-13,16,22,28,31,33H,14-15H2/t22-,26+/m0/s1

> <INCHI_KEY>
InChIKey=VKJBKKSOPAEBAT-BKMJKUGQSA-N

> <SMILES>
OO[C@@]1(CC2=CC=C(I)C=C2)N=C2[C@H](CC3=CC=CC=C3)NC(=CN2C1=O)C1=CC=C(O)C=C1

> <JCHEM_ACCEPTOR_COUNT>
6

> <JCHEM_DONOR_COUNT>
3

> <JCHEM_ACIDIC_PKA>
9.5

> <JCHEM_BASIC_PKA>
4.21

> <JCHEM_PHYSIOLOGICAL_CHARGE>
0

> <ALOGPS_LOGP>
4.41

> <JCHEM_LOGP>
5.23

> <ALOGPS_LOGS>
-5.2

> <JCHEM_POLARIZABILITY>
53.1

> <JCHEM_POLAR_SURFACE_AREA>
94.39

> <JCHEM_REFRACTIVITY>
137.12

> <JCHEM_ROTATABLE_BOND_COUNT>
6

> <ALOGPS_SOLUBILITY>
3.52e-03 g/l __ 

$$$$
