
  Mrv0541 02231217542D          

 62 62  0  0  1  0            999 V2000
  -10.7460   12.8423    0.0000 C   0  0  0  0  0  0  0  0  0  0  0  0
  -10.0026   13.2000    0.0000 C   0  0  0  0  0  0  0  0  0  0  0  0
   -9.3211   12.7350    0.0000 C   0  0  0  0  0  0  0  0  0  0  0  0
   -8.5777   13.0927    0.0000 C   0  0  0  0  0  0  0  0  0  0  0  0
   -7.8962   12.6277    0.0000 C   0  0  0  0  0  0  0  0  0  0  0  0
   -7.1528   12.9854    0.0000 C   0  0  0  0  0  0  0  0  0  0  0  0
   -6.4713   12.5204    0.0000 C   0  0  0  0  0  0  0  0  0  0  0  0
   -5.7279   12.8781    0.0000 C   0  0  0  0  0  0  0  0  0  0  0  0
   -5.0464   12.4131    0.0000 C   0  0  0  0  0  0  0  0  0  0  0  0
   -4.3030   12.7708    0.0000 C   0  0  0  0  0  0  0  0  0  0  0  0
   -3.6215   12.3058    0.0000 C   0  0  0  0  0  0  0  0  0  0  0  0
   -2.8781   12.6635    0.0000 C   0  0  0  0  0  0  0  0  0  0  0  0
   -2.1966   12.1985    0.0000 C   0  0  0  0  0  0  0  0  0  0  0  0
   -1.4531   12.5562    0.0000 C   0  0  0  0  0  0  0  0  0  0  0  0
   -0.7717   12.0912    0.0000 C   0  0  0  0  0  0  0  0  0  0  0  0
   -0.0282   12.4489    0.0000 C   0  0  0  0  0  0  0  0  0  0  0  0
    0.6532   11.9839    0.0000 C   0  0  0  0  0  0  0  0  0  0  0  0
    1.3967   12.3416    0.0000 C   0  0  0  0  0  0  0  0  0  0  0  0
    2.0781   11.8766    0.0000 C   0  0  0  0  0  0  0  0  0  0  0  0
    2.8216   12.2343    0.0000 C   0  0  0  0  0  0  0  0  0  0  0  0
    3.5030   11.7693    0.0000 C   0  0  0  0  0  0  0  0  0  0  0  0
    4.2465   12.1270    0.0000 C   0  0  0  0  0  0  0  0  0  0  0  0
    4.9280   11.6620    0.0000 C   0  0  1  0  0  0  0  0  0  0  0  0
    4.8660   10.8393    0.0000 O   0  0  0  0  0  0  0  0  0  0  0  0
    5.6714   12.0196    0.0000 C   0  0  0  0  0  0  0  0  0  0  0  0
    5.7333   12.8423    0.0000 O   0  0  0  0  0  0  0  0  0  0  0  0
    6.3529   11.5547    0.0000 N   0  0  0  0  0  0  0  0  0  0  0  0
    7.0963   11.9123    0.0000 C   0  0  1  0  0  0  0  0  0  0  0  0
    7.1582   12.7350    0.0000 C   0  0  0  0  0  0  0  0  0  0  0  0
    6.4768   13.2000    0.0000 O   0  0  0  0  0  0  0  0  0  0  0  0
    6.5387   14.0227    0.0000 C   0  0  2  0  0  0  0  0  0  0  0  0
    5.8572   14.4877    0.0000 O   0  0  0  0  0  0  0  0  0  0  0  0
    5.9192   15.3103    0.0000 C   0  0  2  0  0  0  0  0  0  0  0  0
    5.2377   15.7753    0.0000 C   0  0  0  0  0  0  0  0  0  0  0  0
    5.2997   16.5980    0.0000 O   0  0  0  0  0  0  0  0  0  0  0  0
    6.6626   15.6680    0.0000 C   0  0  2  0  0  0  0  0  0  0  0  0
    6.7246   16.4907    0.0000 O   0  0  0  0  0  0  0  0  0  0  0  0
    7.3441   15.2030    0.0000 C   0  0  2  0  0  0  0  0  0  0  0  0
    8.0875   15.5607    0.0000 O   0  0  0  0  0  0  0  0  0  0  0  0
    8.7690   15.0957    0.0000 S   0  0  0  0  0  0  0  0  0  0  0  0
    8.3040   14.4142    0.0000 O   0  0  0  0  0  0  0  0  0  0  0  0
    9.2340   15.7772    0.0000 O   0  0  0  0  0  0  0  0  0  0  0  0
    9.4505   14.6307    0.0000 O   0  0  0  0  0  0  0  0  0  0  0  0
    7.2822   14.3804    0.0000 C   0  0  1  0  0  0  0  0  0  0  0  0
    7.9636   13.9154    0.0000 O   0  0  0  0  0  0  0  0  0  0  0  0
    7.7778   11.4474    0.0000 C   0  0  2  0  0  0  0  0  0  0  0  0
    7.7158   10.6247    0.0000 O   0  0  0  0  0  0  0  0  0  0  0  0
    8.5212   11.8050    0.0000 C   0  0  0  0  0  0  0  0  0  0  0  0
    9.2027   11.3400    0.0000 C   0  0  0  0  0  0  0  0  0  0  0  0
    9.9461   11.6977    0.0000 C   0  0  0  0  0  0  0  0  0  0  0  0
   10.6276   11.2327    0.0000 C   0  0  0  0  0  0  0  0  0  0  0  0
   11.3710   11.5904    0.0000 C   0  0  0  0  0  0  0  0  0  0  0  0
   12.0525   11.1254    0.0000 C   0  0  0  0  0  0  0  0  0  0  0  0
   12.7959   11.4831    0.0000 C   0  0  0  0  0  0  0  0  0  0  0  0
   13.4774   11.0181    0.0000 C   0  0  0  0  0  0  0  0  0  0  0  0
   14.2208   11.3758    0.0000 C   0  0  0  0  0  0  0  0  0  0  0  0
   14.9023   10.9108    0.0000 C   0  0  0  0  0  0  0  0  0  0  0  0
   15.6457   11.2685    0.0000 C   0  0  0  0  0  0  0  0  0  0  0  0
   16.3272   10.8035    0.0000 C   0  0  0  0  0  0  0  0  0  0  0  0
   17.0706   11.1612    0.0000 C   0  0  0  0  0  0  0  0  0  0  0  0
   17.7521   10.6962    0.0000 C   0  0  0  0  0  0  0  0  0  0  0  0
   18.4956   11.0539    0.0000 C   0  0  0  0  0  0  0  0  0  0  0  0
  1  2  1  0  0  0  0
  2  3  1  0  0  0  0
  3  4  1  0  0  0  0
  4  5  1  0  0  0  0
  5  6  1  0  0  0  0
  6  7  1  0  0  0  0
  7  8  1  0  0  0  0
  8  9  1  0  0  0  0
  9 10  1  0  0  0  0
 10 11  1  0  0  0  0
 11 12  1  0  0  0  0
 12 13  1  0  0  0  0
 13 14  1  0  0  0  0
 14 15  1  0  0  0  0
 15 16  1  0  0  0  0
 16 17  1  0  0  0  0
 17 18  1  0  0  0  0
 18 19  1  0  0  0  0
 19 20  1  0  0  0  0
 20 21  1  0  0  0  0
 21 22  1  0  0  0  0
 22 23  1  0  0  0  0
 23 24  1  6  0  0  0
 23 25  1  0  0  0  0
 25 26  2  0  0  0  0
 25 27  1  0  0  0  0
 28 27  1  1  0  0  0
 28 29  1  0  0  0  0
 29 30  1  0  0  0  0
 31 30  1  6  0  0  0
 31 32  1  0  0  0  0
 32 33  1  0  0  0  0
 33 34  1  6  0  0  0
 34 35  1  0  0  0  0
 33 36  1  0  0  0  0
 36 37  1  6  0  0  0
 36 38  1  0  0  0  0
 38 39  1  6  0  0  0
 39 40  1  0  0  0  0
 40 41  1  0  0  0  0
 40 42  2  0  0  0  0
 40 43  2  0  0  0  0
 38 44  1  0  0  0  0
 31 44  1  0  0  0  0
 44 45  1  1  0  0  0
 28 46  1  0  0  0  0
 46 47  1  1  0  0  0
 46 48  1  0  0  0  0
 48 49  2  0  0  0  0
 49 50  1  0  0  0  0
 50 51  1  0  0  0  0
 51 52  1  0  0  0  0
 52 53  1  0  0  0  0
 53 54  1  0  0  0  0
 54 55  1  0  0  0  0
 55 56  1  0  0  0  0
 56 57  1  0  0  0  0
 57 58  1  0  0  0  0
 58 59  1  0  0  0  0
 59 60  1  0  0  0  0
 60 61  1  0  0  0  0
 61 62  1  0  0  0  0
M  END
> <DRUGBANK_ID>
DB04780

> <DRUG_GROUPS>
experimental

> <GENERIC_NAME>
Sulfatide

> <SYNONYMS>


> <CHEMICAL_FORMULA>
C48H93NO12S

> <MOLECULAR_WEIGHT>
908.317

> <EXACT_MASS>
907.641848135

> <IUPAC_NAME>
[(2R,3R,4S,5S,6R)-3,5-dihydroxy-2-{[(2S,3R,4E)-3-hydroxy-2-[(2R)-2-hydroxytetracosanamido]octadec-4-en-1-yl]oxy}-6-(hydroxymethyl)oxan-4-yl]oxidanesulfonic acid

> <IUPAC_TRADITIONAL_NAME>
sulfatide

> <INCHI_IDENTIFIER>
InChI=1S/C48H93NO12S/c1-3-5-7-9-11-13-15-17-18-19-20-21-22-23-25-27-29-31-33-35-37-42(52)47(55)49-40(41(51)36-34-32-30-28-26-24-16-14-12-10-8-6-4-2)39-59-48-45(54)46(61-62(56,57)58)44(53)43(38-50)60-48/h34,36,40-46,48,50-54H,3-33,35,37-39H2,1-2H3,(H,49,55)(H,56,57,58)/b36-34+/t40-,41+,42+,43+,44-,45+,46-,48+/m0/s1

> <INCHI_KEY>
InChIKey=QTTLKKFUOJQIRB-JOLIRYOJSA-N

> <SMILES>
CCCCCCCCCCCCCCCCCCCCCC[C@@H](O)C(=O)N[C@@H](CO[C@@H]1O[C@H](CO)[C@H](O)[C@H](OS(O)(=O)=O)[C@H]1O)[C@H](O)\C=C\CCCCCCCCCCCCC

> <JCHEM_ACCEPTOR_COUNT>
11

> <JCHEM_DONOR_COUNT>
7

> <JCHEM_ACIDIC_PKA>
-1.8

> <JCHEM_BASIC_PKA>
-3

> <JCHEM_PHYSIOLOGICAL_CHARGE>
-1

> <ALOGPS_LOGP>
5.57

> <JCHEM_LOGP>
10.09

> <ALOGPS_LOGS>
-6.2

> <JCHEM_POLARIZABILITY>
112.8

> <JCHEM_POLAR_SURFACE_AREA>
212.31

> <JCHEM_REFRACTIVITY>
246.48

> <JCHEM_ROTATABLE_BOND_COUNT>
43

> <ALOGPS_SOLUBILITY>
5.99e-04 g/l __ 

$$$$
