
  Mrv0541 02231217582D          

 13 14  0  0  0  0            999 V2000
    3.3813   -1.4613    0.0000 O   0  0  0  0  0  0  0  0  0  0  0  0
    3.3813    1.7069    0.0000 O   0  5  0  0  0  0  0  0  0  0  0  0
    3.3813   -0.6693    0.0000 N   0  0  0  0  0  0  0  0  0  0  0  0
    3.3813    0.9148    0.0000 N   0  3  0  0  0  0  0  0  0  0  0  0
    2.6954    0.5188    0.0000 N   0  0  0  0  0  0  0  0  0  0  0  0
    2.0094   -0.6693    0.0000 N   0  0  0  0  0  0  0  0  0  0  0  0
    4.0672   -0.2733    0.0000 C   0  0  0  0  0  0  0  0  0  0  0  0
    4.0672    0.5188    0.0000 C   0  0  0  0  0  0  0  0  0  0  0  0
    4.7753   -0.6968    0.0000 C   0  0  0  0  0  0  0  0  0  0  0  0
    4.7753    0.9423    0.0000 C   0  0  0  0  0  0  0  0  0  0  0  0
    2.6954   -0.2733    0.0000 C   0  0  0  0  0  0  0  0  0  0  0  0
    5.4929   -0.2897    0.0000 C   0  0  0  0  0  0  0  0  0  0  0  0
    5.4929    0.5353    0.0000 C   0  0  0  0  0  0  0  0  0  0  0  0
  1  3  1  0  0  0  0
  2  4  1  0  0  0  0
  3  7  1  0  0  0  0
  3 11  1  0  0  0  0
  4  5  2  0  0  0  0
  4  8  1  0  0  0  0
  5 11  1  0  0  0  0
  6 11  2  0  0  0  0
  7  8  1  0  0  0  0
  7  9  2  0  0  0  0
  8 10  2  0  0  0  0
  9 12  1  0  0  0  0
 10 13  1  0  0  0  0
 12 13  2  0  0  0  0
M  END
> <DRUGBANK_ID>
DB04858

> <DRUG_GROUPS>
investigational

> <GENERIC_NAME>
Tirapazamine

> <SYNONYMS>


> <BRANDS>
Tirazone

> <CHEMICAL_FORMULA>
C7H6N4O2

> <MOLECULAR_WEIGHT>
178.1481

> <EXACT_MASS>
178.049075456

> <IUPAC_NAME>
4-hydroxy-3-imino-3,4-dihydro-1,2,4-benzotriazin-1-ium-1-olate

> <IUPAC_TRADITIONAL_NAME>
tirapazamine

> <INCHI_IDENTIFIER>
InChI=1S/C7H6N4O2/c8-7-9-11(13)6-4-2-1-3-5(6)10(7)12/h1-4,8,12H

> <INCHI_KEY>
InChIKey=QVMPZNRFXAKISM-UHFFFAOYSA-N

> <SMILES>
ON1C(=N)N=[N+]([O-])C2=CC=CC=C12

> <JCHEM_ACCEPTOR_COUNT>
5

> <JCHEM_DONOR_COUNT>
2

> <JCHEM_ACIDIC_PKA>
13.22

> <JCHEM_BASIC_PKA>
-0.39

> <JCHEM_PHYSIOLOGICAL_CHARGE>
0

> <ALOGPS_LOGP>
1.31

> <JCHEM_LOGP>
-0.061

> <ALOGPS_LOGS>
-2.8

> <JCHEM_POLARIZABILITY>
15.82

> <JCHEM_POLAR_SURFACE_AREA>
88.43

> <JCHEM_REFRACTIVITY>
66.15

> <JCHEM_ROTATABLE_BOND_COUNT>
0

> <ALOGPS_SOLUBILITY>
2.95e-01 g/l __ 

$$$$
