DSB
  Mrv0541 02231217462D          

 16 15  0  0  0  0            999 V2000
   -3.0605    0.8344    0.0000 C   0  0  0  0  0  0  0  0  0  0  0  0
   -3.7749    0.4219    0.0000 O   0  0  0  0  0  0  0  0  0  0  0  0
   -2.3460    0.4219    0.0000 C   0  0  0  0  0  0  0  0  0  0  0  0
   -1.6315    0.8344    0.0000 C   0  0  0  0  0  0  0  0  0  0  0  0
   -0.2026    0.8344    0.0000 C   0  0  0  0  0  0  0  0  0  0  0  0
   -3.0605    1.6594    0.0000 O   0  0  0  0  0  0  0  0  0  0  0  0
    0.5119    0.4219    0.0000 C   0  0  0  0  0  0  0  0  0  0  0  0
    1.9408    0.4219    0.0000 C   0  0  0  0  0  0  0  0  0  0  0  0
    2.6553    0.8344    0.0000 C   0  0  0  0  0  0  0  0  0  0  0  0
    3.3698    0.4219    0.0000 C   0  0  0  0  0  0  0  0  0  0  0  0
    4.0842    0.8344    0.0000 O   0  0  0  0  0  0  0  0  0  0  0  0
    3.3698   -0.4031    0.0000 O   0  0  0  0  0  0  0  0  0  0  0  0
    1.2264    0.8344    0.0000 C   0  0  0  0  0  0  0  0  0  0  0  0
   -0.9171    0.4219    0.0000 C   0  0  0  0  0  0  0  0  0  0  0  0
   -0.9171   -0.4031    0.0000 O   0  0  0  0  0  0  0  0  0  0  0  0
    1.2264    1.6594    0.0000 O   0  0  0  0  0  0  0  0  0  0  0  0
  1  2  2  0  0  0  0
  1  3  1  0  0  0  0
  1  6  1  0  0  0  0
  3  4  1  0  0  0  0
  4 14  1  0  0  0  0
  5  7  1  0  0  0  0
  5 14  1  0  0  0  0
  7 13  1  0  0  0  0
  8  9  1  0  0  0  0
  8 13  1  0  0  0  0
  9 10  1  0  0  0  0
 10 11  1  0  0  0  0
 10 12  2  0  0  0  0
 13 16  2  0  0  0  0
 14 15  2  0  0  0  0
M  END
> <DRUGBANK_ID>
DB04560

> <DRUG_GROUPS>
experimental

> <GENERIC_NAME>
4,7-Dioxosebacic Acid

> <CHEMICAL_FORMULA>
C10H14O6

> <MOLECULAR_WEIGHT>
230.2146

> <EXACT_MASS>
230.07903818

> <IUPAC_NAME>
4,7-dioxodecanedioic acid

> <IUPAC_TRADITIONAL_NAME>
4,7-dioxosebacic acid

> <INCHI_IDENTIFIER>
InChI=1S/C10H14O6/c11-7(3-5-9(13)14)1-2-8(12)4-6-10(15)16/h1-6H2,(H,13,14)(H,15,16)

> <INCHI_KEY>
InChIKey=DUAWJQCMZICMIK-UHFFFAOYSA-N

> <SMILES>
OC(=O)CCC(=O)CCC(=O)CCC(O)=O

> <JCHEM_ACCEPTOR_COUNT>
6

> <JCHEM_DONOR_COUNT>
2

> <JCHEM_ACIDIC_PKA>
3.97

> <JCHEM_BASIC_PKA>
-7.1

> <JCHEM_PHYSIOLOGICAL_CHARGE>
-2

> <ALOGPS_LOGP>
-0.27

> <JCHEM_LOGP>
-0.09

> <ALOGPS_LOGS>
-1.9

> <JCHEM_POLARIZABILITY>
22.3

> <JCHEM_POLAR_SURFACE_AREA>
108.74

> <JCHEM_REFRACTIVITY>
52.43

> <JCHEM_ROTATABLE_BOND_COUNT>
9

> <ALOGPS_SOLUBILITY>
2.94e+00 g/l __ 

$$$$
