CED
  Mrv0541 02231217272D          

 24 25  0  0  0  0            999 V2000
   -1.7186    0.3290    0.0000 S   0  0  0  0  0  0  0  0  0  0  0  0
   -2.1311    1.0435    0.0000 C   0  0  0  0  0  0  0  0  0  0  0  0
   -1.7186    1.7580    0.0000 C   0  0  0  0  0  0  0  0  0  0  0  0
   -2.1311    2.4725    0.0000 C   0  0  0  0  0  0  0  0  0  0  0  0
   -0.8936    1.7580    0.0000 C   0  0  0  0  0  0  0  0  0  0  0  0
   -0.4811    2.4725    0.0000 C   0  0  0  0  0  0  0  0  0  0  0  0
    0.3439    2.4725    0.0000 O   0  0  0  0  0  0  0  0  0  0  0  0
   -0.8936    3.1869    0.0000 O   0  0  0  0  0  0  0  0  0  0  0  0
   -0.4811    1.0435    0.0000 N   0  0  0  0  0  0  0  0  0  0  0  0
   -0.8936    0.3290    0.0000 C   0  0  1  0  0  0  0  0  0  0  0  0
   -0.4811   -0.3854    0.0000 C   0  0  1  0  0  0  0  0  0  0  0  0
   -0.8936   -1.0999    0.0000 C   0  0  0  0  0  0  0  0  0  0  0  0
   -1.7186   -1.0999    0.0000 O   0  0  0  0  0  0  0  0  0  0  0  0
    0.3439   -0.3854    0.0000 N   0  0  0  0  0  0  0  0  0  0  0  0
    0.7564   -1.0999    0.0000 C   0  0  0  0  0  0  0  0  0  0  0  0
    0.3439   -1.8144    0.0000 O   0  0  0  0  0  0  0  0  0  0  0  0
    1.5814   -1.0999    0.0000 C   0  0  0  0  0  0  0  0  0  0  0  0
    1.9939   -1.8144    0.0000 C   0  0  0  0  0  0  0  0  0  0  0  0
    2.8144   -1.9006    0.0000 C   0  0  0  0  0  0  0  0  0  0  0  0
    2.9859   -2.7076    0.0000 C   0  0  0  0  0  0  0  0  0  0  0  0
    2.2714   -3.1201    0.0000 C   0  0  0  0  0  0  0  0  0  0  0  0
    1.6583   -2.5680    0.0000 S   0  0  0  0  0  0  0  0  0  0  0  0
   -0.9950   -0.2460    0.0000 H   0  0  0  0  0  0  0  0  0  0  0  0
   -1.0298   -0.5851    0.0000 H   0  0  0  0  0  0  0  0  0  0  0  0
  1  2  1  0  0  0  0
  1 10  1  0  0  0  0
  2  3  1  0  0  0  0
  3  4  1  0  0  0  0
  3  5  2  0  0  0  0
  5  6  1  0  0  0  0
  5  9  1  0  0  0  0
  6  7  2  0  0  0  0
  6  8  1  0  0  0  0
  9 10  1  0  0  0  0
 10 11  1  1  0  0  0
 10 23  1  6  0  0  0
 11 12  1  0  0  0  0
 11 14  1  1  0  0  0
 11 24  1  1  0  0  0
 12 13  2  0  0  0  0
 14 15  1  0  0  0  0
 15 16  2  0  0  0  0
 15 17  1  0  0  0  0
 17 18  1  0  0  0  0
 18 19  2  0  0  0  0
 18 22  1  0  0  0  0
 19 20  1  0  0  0  0
 20 21  2  0  0  0  0
 21 22  1  0  0  0  0
M  END
> <DRUGBANK_ID>
DB04133

> <DRUG_GROUPS>
experimental

> <GENERIC_NAME>
Degraded Cephaloridine

> <CHEMICAL_FORMULA>
C14H16N2O4S2

> <MOLECULAR_WEIGHT>
340.418

> <EXACT_MASS>
340.05514839

> <IUPAC_NAME>
(2R)-5-methyl-2-[(1R)-2-oxo-1-[2-(thiophen-2-yl)acetamido]ethyl]-3,6-dihydro-2H-1,3-thiazine-4-carboxylic acid

> <IUPAC_TRADITIONAL_NAME>
(2R)-5-methyl-2-[(1R)-2-oxo-1-[2-(thiophen-2-yl)acetamido]ethyl]-3,6-dihydro-2H-1,3-thiazine-4-carboxylic acid

> <INCHI_IDENTIFIER>
InChI=1S/C14H16N2O4S2/c1-8-7-22-13(16-12(8)14(19)20)10(6-17)15-11(18)5-9-3-2-4-21-9/h2-4,6,10,13,16H,5,7H2,1H3,(H,15,18)(H,19,20)/t10-,13-/m1/s1

> <INCHI_KEY>
InChIKey=SFVACKBZMIZHCK-ZWNOBZJWSA-N

> <SMILES>
[H][C@@](NC(=O)CC1=CC=CS1)(C=O)[C@]1([H])NC(C(O)=O)=C(C)CS1

> <JCHEM_ACCEPTOR_COUNT>
5

> <JCHEM_DONOR_COUNT>
3

> <JCHEM_ACIDIC_PKA>
3.89

> <JCHEM_BASIC_PKA>
-0.82

> <JCHEM_PHYSIOLOGICAL_CHARGE>
-1

> <ALOGPS_LOGP>
1.12

> <JCHEM_LOGP>
0.86

> <ALOGPS_LOGS>
-3.9

> <JCHEM_POLARIZABILITY>
33.42

> <JCHEM_POLAR_SURFACE_AREA>
95.5

> <JCHEM_REFRACTIVITY>
85.02

> <JCHEM_ROTATABLE_BOND_COUNT>
6

> <ALOGPS_SOLUBILITY>
4.11e-02 g/l __ 

$$$$
