RMC
  Mrv0541 02231217542D          

 28 30  0  0  0  0            999 V2000
    2.3566   -2.9917    0.0000 O   0  0  0  0  0  0  0  0  0  0  0  0
    2.3566   -2.1667    0.0000 C   0  0  0  0  0  0  0  0  0  0  0  0
    1.6422   -1.7542    0.0000 C   0  0  1  0  0  0  0  0  0  0  0  0
    0.9277   -2.1667    0.0000 C   0  0  0  0  0  0  0  0  0  0  0  0
    0.2132   -1.7542    0.0000 C   0  0  0  0  0  0  0  0  0  0  0  0
    1.6422   -0.9292    0.0000 N   0  0  0  0  0  0  0  0  0  0  0  0
    0.9277   -0.5167    0.0000 C   0  0  0  0  0  0  0  0  0  0  0  0
    0.2132   -0.9292    0.0000 N   0  0  0  0  0  0  0  0  0  0  0  0
   -0.5012   -0.5167    0.0000 C   0  0  0  0  0  0  0  0  0  0  0  0
   -1.2859   -0.7717    0.0000 N   0  0  0  0  0  0  0  0  0  0  0  0
   -1.5408   -1.5563    0.0000 C   0  0  0  0  0  0  0  0  0  0  0  0
   -2.3478   -1.7278    0.0000 C   0  0  0  0  0  0  0  0  0  0  0  0
   -0.9888   -2.1694    0.0000 C   0  0  0  0  0  0  0  0  0  0  0  0
   -1.7708   -0.1042    0.0000 C   0  0  0  0  0  0  0  0  0  0  0  0
   -0.5012    0.3083    0.0000 C   0  0  0  0  0  0  0  0  0  0  0  0
   -1.2859    0.5632    0.0000 N   0  0  0  0  0  0  0  0  0  0  0  0
    0.9277    0.3083    0.0000 N   0  0  0  0  0  0  0  0  0  0  0  0
    0.2132    0.7208    0.0000 C   0  0  0  0  0  0  0  0  0  0  0  0
    0.2132    1.5458    0.0000 N   0  0  0  0  0  0  0  0  0  0  0  0
   -0.5012    1.9583    0.0000 C   0  0  0  0  0  0  0  0  0  0  0  0
   -1.2157    3.1958    0.0000 C   0  0  0  0  0  0  0  0  0  0  0  0
   -1.2157    4.0208    0.0000 C   0  0  0  0  0  0  0  0  0  0  0  0
   -0.5012    4.4333    0.0000 C   0  0  0  0  0  0  0  0  0  0  0  0
    0.2132    4.0208    0.0000 C   0  0  0  0  0  0  0  0  0  0  0  0
    0.2132    3.1958    0.0000 C   0  0  0  0  0  0  0  0  0  0  0  0
   -0.5012    2.7833    0.0000 C   0  0  0  0  0  0  0  0  0  0  0  0
    0.9277    1.9583    0.0000 C   0  0  0  0  0  0  0  0  0  0  0  0
    1.6422   -2.3382    0.0000 H   0  0  0  0  0  0  0  0  0  0  0  0
  1  2  1  0  0  0  0
  2  3  1  0  0  0  0
  3  4  1  0  0  0  0
  3  6  1  6  0  0  0
  3 28  1  6  0  0  0
  4  5  1  0  0  0  0
  6  7  1  0  0  0  0
  7  8  2  0  0  0  0
  7 17  1  0  0  0  0
  8  9  1  0  0  0  0
  9 10  1  0  0  0  0
  9 15  2  0  0  0  0
 10 11  1  0  0  0  0
 10 14  1  0  0  0  0
 11 12  1  0  0  0  0
 11 13  1  0  0  0  0
 14 16  2  0  0  0  0
 15 16  1  0  0  0  0
 15 18  1  0  0  0  0
 17 18  2  0  0  0  0
 18 19  1  0  0  0  0
 19 20  1  0  0  0  0
 19 27  1  0  0  0  0
 20 26  1  0  0  0  0
 21 22  2  0  0  0  0
 21 26  1  0  0  0  0
 22 23  1  0  0  0  0
 23 24  2  0  0  0  0
 24 25  1  0  0  0  0
 25 26  2  0  0  0  0
M  END
> <DRUGBANK_ID>
DB04776

> <DRUG_GROUPS>
experimental

> <GENERIC_NAME>
N6-METHYL-(R)-ROSCOVITINE, R-2-[6-(BENZYL-METHYL-AMINO)-9-ISOPROPYL-9H-PURIN-2-YLAMINO]-BUTAN-1-OL

> <CHEMICAL_FORMULA>
C20H28N6O

> <MOLECULAR_WEIGHT>
368.4759

> <EXACT_MASS>
368.232459548

> <IUPAC_NAME>
(2R)-2-({6-[benzyl(methyl)amino]-9-(propan-2-yl)-9H-purin-2-yl}amino)butan-1-ol

> <IUPAC_TRADITIONAL_NAME>
(2R)-2-({6-[benzyl(methyl)amino]-9-isopropylpurin-2-yl}amino)butan-1-ol

> <INCHI_IDENTIFIER>
InChI=1S/C20H28N6O/c1-5-16(12-27)22-20-23-18(25(4)11-15-9-7-6-8-10-15)17-19(24-20)26(13-21-17)14(2)3/h6-10,13-14,16,27H,5,11-12H2,1-4H3,(H,22,23,24)/t16-/m1/s1

> <INCHI_KEY>
InChIKey=YPYWONAECUVKHY-MRXNPFEDSA-N

> <SMILES>
[H][C@@](CC)(CO)NC1=NC2=C(N=CN2C(C)C)C(=N1)N(C)CC1=CC=CC=C1

> <JCHEM_ACCEPTOR_COUNT>
6

> <JCHEM_DONOR_COUNT>
2

> <JCHEM_ACIDIC_PKA>
14.33

> <JCHEM_BASIC_PKA>
5.4

> <JCHEM_PHYSIOLOGICAL_CHARGE>
0

> <ALOGPS_LOGP>
3.45

> <JCHEM_LOGP>
3.53

> <ALOGPS_LOGS>
-3.2

> <JCHEM_POLARIZABILITY>
42.13

> <JCHEM_POLAR_SURFACE_AREA>
79.1

> <JCHEM_REFRACTIVITY>
110.38

> <JCHEM_ROTATABLE_BOND_COUNT>
8

> <ALOGPS_SOLUBILITY>
2.40e-01 g/l __ 

$$$$
