
  Mrv0541 02231217472D          

 17 18  0  0  1  0            999 V2000
    0.4323   -2.0127    0.0000 C   0  0  0  0  0  0  0  0  0  0  0  0
    0.7145   -1.2375    0.0000 C   0  0  2  0  0  0  0  0  0  0  0  0
    0.7145   -0.4125    0.0000 O   0  0  0  0  0  0  0  0  0  0  0  0
    1.4289    0.0000    0.0000 C   0  0  0  0  0  0  0  0  0  0  0  0
    2.1434   -0.4125    0.0000 C   0  0  1  0  0  0  0  0  0  0  0  0
    2.8579    0.0000    0.0000 O   0  0  0  0  0  0  0  0  0  0  0  0
    3.5724   -0.4125    0.0000 C   0  0  1  0  0  0  0  0  0  0  0  0
    4.2868    0.0000    0.0000 O   0  0  0  0  0  0  0  0  0  0  0  0
    3.5724   -1.2375    0.0000 C   0  0  1  0  0  0  0  0  0  0  0  0
    4.2868   -1.6500    0.0000 O   0  0  0  0  0  0  0  0  0  0  0  0
    2.8579   -1.6500    0.0000 C   0  0  1  0  0  0  0  0  0  0  0  0
    2.8579   -2.4750    0.0000 O   0  0  0  0  0  0  0  0  0  0  0  0
    2.1434   -1.2375    0.0000 C   0  0  2  0  0  0  0  0  0  0  0  0
    1.4289   -1.6500    0.0000 O   0  0  0  0  0  0  0  0  0  0  0  0
   -0.0980   -1.0942    0.0000 C   0  0  0  0  0  0  0  0  0  0  0  0
   -0.6283   -1.7262    0.0000 O   0  0  0  0  0  0  0  0  0  0  0  0
   -0.3802   -0.3190    0.0000 O   0  0  0  0  0  0  0  0  0  0  0  0
  2  1  1  6  0  0  0
  2  3  1  0  0  0  0
  3  4  1  0  0  0  0
  4  5  1  0  0  0  0
  5  6  1  1  0  0  0
  6  7  1  0  0  0  0
  7  8  1  1  0  0  0
  7  9  1  0  0  0  0
  9 10  1  1  0  0  0
  9 11  1  0  0  0  0
 11 12  1  1  0  0  0
 11 13  1  0  0  0  0
  5 13  1  0  0  0  0
 13 14  1  6  0  0  0
  2 14  1  0  0  0  0
  2 15  1  1  0  0  0
 15 16  1  0  0  0  0
 15 17  2  0  0  0  0
M  END
> <DRUGBANK_ID>
DB04597

> <DRUG_GROUPS>
experimental

> <GENERIC_NAME>
[4,6-O-(1-CARBOXYETHYLIDENE)-BETA-D-MANNOSE]

> <CHEMICAL_FORMULA>
C9H14O8

> <MOLECULAR_WEIGHT>
250.2027

> <EXACT_MASS>
250.068867424

> <IUPAC_NAME>
(2S,4aR,6R,7S,8R,8aS)-6,7,8-trihydroxy-2-methyl-hexahydro-2H-pyrano[3,2-d][1,3]dioxine-2-carboxylic acid

> <IUPAC_TRADITIONAL_NAME>
(2S,4aR,6R,7S,8R,8aS)-6,7,8-trihydroxy-2-methyl-hexahydropyrano[3,2-d][1,3]dioxine-2-carboxylic acid

> <INCHI_IDENTIFIER>
InChI=1S/C9H14O8/c1-9(8(13)14)15-2-3-6(17-9)4(10)5(11)7(12)16-3/h3-7,10-12H,2H2,1H3,(H,13,14)/t3-,4-,5+,6-,7-,9+/m1/s1

> <INCHI_KEY>
InChIKey=QVVFNJUJKXWFAU-BDIBXJNUSA-N

> <SMILES>
C[C@@]1(OC[C@H]2O[C@@H](O)[C@@H](O)[C@@H](O)[C@@H]2O1)C(O)=O

> <JCHEM_ACCEPTOR_COUNT>
8

> <JCHEM_DONOR_COUNT>
4

> <JCHEM_ACIDIC_PKA>
2.86

> <JCHEM_BASIC_PKA>
-3.7

> <JCHEM_PHYSIOLOGICAL_CHARGE>
-1

> <ALOGPS_LOGP>
-2.1

> <JCHEM_LOGP>
-1.5

> <ALOGPS_LOGS>
0.28

> <JCHEM_POLARIZABILITY>
22.23

> <JCHEM_POLAR_SURFACE_AREA>
125.68

> <JCHEM_REFRACTIVITY>
49.45

> <JCHEM_ROTATABLE_BOND_COUNT>
1

> <ALOGPS_SOLUBILITY>
4.76e+02 g/l __ 

$$$$
