
  Mrv0541 02231217252D          

 19 21  0  0  1  0            999 V2000
   -1.8505    0.5241    0.0000 N   0  0  0  0  0  0  0  0  0  0  0  0
   -1.1831    1.0091    0.0000 C   0  0  2  0  0  0  0  0  0  0  0  0
   -1.1831    1.8341    0.0000 C   0  0  1  0  0  0  0  0  0  0  0  0
   -1.8505    2.3190    0.0000 O   0  0  0  0  0  0  0  0  0  0  0  0
   -0.3984    2.0890    0.0000 C   0  0  2  0  0  0  0  0  0  0  0  0
   -0.1435    2.8736    0.0000 C   0  0  0  0  0  0  0  0  0  0  0  0
   -0.6955    3.4867    0.0000 O   0  0  0  0  0  0  0  0  0  0  0  0
    0.0865    1.4216    0.0000 O   0  0  0  0  0  0  0  0  0  0  0  0
   -0.3984    0.7541    0.0000 C   0  0  1  0  0  0  0  0  0  0  0  0
   -0.1435   -0.0305    0.0000 N   0  0  0  0  0  0  0  0  0  0  0  0
   -0.6284   -0.6979    0.0000 C   0  0  0  0  0  0  0  0  0  0  0  0
   -0.1435   -1.3654    0.0000 N   0  0  0  0  0  0  0  0  0  0  0  0
    0.6411   -1.1104    0.0000 C   0  0  0  0  0  0  0  0  0  0  0  0
    0.6411   -0.2854    0.0000 C   0  0  0  0  0  0  0  0  0  0  0  0
    1.3556    0.1271    0.0000 N   0  0  0  0  0  0  0  0  0  0  0  0
    2.0701   -0.2854    0.0000 C   0  0  0  0  0  0  0  0  0  0  0  0
    2.0701   -1.1104    0.0000 N   0  0  0  0  0  0  0  0  0  0  0  0
    1.3556   -1.5229    0.0000 C   0  0  0  0  0  0  0  0  0  0  0  0
    1.3556   -2.3479    0.0000 N   0  0  0  0  0  0  0  0  0  0  0  0
  2  1  1  6  0  0  0
  2  3  1  0  0  0  0
  3  4  1  1  0  0  0
  3  5  1  0  0  0  0
  5  6  1  6  0  0  0
  6  7  1  0  0  0  0
  5  8  1  0  0  0  0
  8  9  1  0  0  0  0
  2  9  1  0  0  0  0
  9 10  1  1  0  0  0
 10 11  1  0  0  0  0
 11 12  2  0  0  0  0
 12 13  1  0  0  0  0
 13 14  2  0  0  0  0
 10 14  1  0  0  0  0
 14 15  1  0  0  0  0
 15 16  2  0  0  0  0
 16 17  1  0  0  0  0
 17 18  2  0  0  0  0
 13 18  1  0  0  0  0
 18 19  1  0  0  0  0
M  END
> <DRUGBANK_ID>
DB04102

> <DRUG_GROUPS>
experimental

> <GENERIC_NAME>
2-Amino-Adenosine

> <CHEMICAL_FORMULA>
C10H14N6O3

> <MOLECULAR_WEIGHT>
266.2566

> <EXACT_MASS>
266.112738344

> <IUPAC_NAME>
(2S,3R,4R,5R)-4-amino-5-(6-amino-9H-purin-9-yl)-2-(hydroxymethyl)oxolan-3-ol

> <IUPAC_TRADITIONAL_NAME>
2-amino-adenosine

> <INCHI_IDENTIFIER>
InChI=1S/C10H14N6O3/c11-5-7(18)4(1-17)19-10(5)16-3-15-6-8(12)13-2-14-9(6)16/h2-5,7,10,17-18H,1,11H2,(H2,12,13,14)/t4-,5+,7-,10+/m0/s1

> <INCHI_KEY>
InChIKey=CQKMBZHLOYVGHW-CBPNBUAGSA-N

> <SMILES>
N[C@@H]1[C@@H](O)[C@H](CO)O[C@H]1N1C=NC2=C1N=CN=C2N

> <JCHEM_ACCEPTOR_COUNT>
8

> <JCHEM_DONOR_COUNT>
4

> <JCHEM_ACIDIC_PKA>
13.38

> <JCHEM_BASIC_PKA>
8.35

> <JCHEM_PHYSIOLOGICAL_CHARGE>
1

> <ALOGPS_LOGP>
-1.4

> <JCHEM_LOGP>
-2.2

> <ALOGPS_LOGS>
-1.4

> <JCHEM_POLARIZABILITY>
25.54

> <JCHEM_POLAR_SURFACE_AREA>
145.33

> <JCHEM_REFRACTIVITY>
64.85

> <JCHEM_ROTATABLE_BOND_COUNT>
2

> <ALOGPS_SOLUBILITY>
1.00e+01 g/l __ 

$$$$
