
  Mrv0541 02231217222D          

 47 51  0  0  1  0            999 V2000
    3.0999   -0.7910    0.0000 C   0  0  0  0  0  0  0  0  0  0  0  0
    2.3854   -0.3785    0.0000 O   0  0  0  0  0  0  0  0  0  0  0  0
    1.6710   -0.7910    0.0000 C   0  0  2  0  0  0  0  0  0  0  0  0
    0.9565   -0.3785    0.0000 O   0  0  0  0  0  0  0  0  0  0  0  0
    1.6710   -1.6160    0.0000 C   0  0  0  0  0  0  0  0  0  0  0  0
    2.3854   -2.0285    0.0000 C   0  0  0  0  0  0  0  0  0  0  0  0
    2.3854   -2.8535    0.0000 C   0  0  0  0  0  0  0  0  0  0  0  0
    1.6710   -3.2660    0.0000 C   0  0  0  0  0  0  0  0  0  0  0  0
    1.6710   -4.0910    0.0000 C   0  0  0  0  0  0  0  0  0  0  0  0
    0.9565   -4.5035    0.0000 N   0  0  0  0  0  0  0  0  0  0  0  0
    1.0181   -5.3262    0.0000 C   0  0  2  0  0  0  0  0  0  0  0  0
    1.7861   -5.6276    0.0000 C   0  0  0  0  0  0  0  0  0  0  0  0
    2.4311   -5.1132    0.0000 O   0  0  0  0  0  0  0  0  0  0  0  0
    3.1991   -5.4146    0.0000 C   0  0  0  0  0  0  0  0  0  0  0  0
    3.8441   -4.9002    0.0000 C   0  0  0  0  0  0  0  0  0  0  0  0
    4.6121   -5.2016    0.0000 C   0  0  0  0  0  0  0  0  0  0  0  0
    4.7350   -6.0174    0.0000 C   0  0  0  0  0  0  0  0  0  0  0  0
    4.0900   -6.5318    0.0000 C   0  0  0  0  0  0  0  0  0  0  0  0
    3.3221   -6.2304    0.0000 C   0  0  0  0  0  0  0  0  0  0  0  0
    0.4134   -5.8873    0.0000 C   0  0  1  0  0  0  0  0  0  0  0  0
    0.6566   -6.6757    0.0000 O   0  0  0  0  0  0  0  0  0  0  0  0
   -0.4024   -5.7644    0.0000 C   0  0  2  0  0  0  0  0  0  0  0  0
   -0.8671   -6.4460    0.0000 O   0  0  0  0  0  0  0  0  0  0  0  0
   -0.8149   -5.0499    0.0000 C   0  0  2  0  0  0  0  0  0  0  0  0
   -1.6376   -5.1115    0.0000 C   0  0  0  0  0  0  0  0  0  0  0  0
   -1.9956   -5.8548    0.0000 O   0  0  0  0  0  0  0  0  0  0  0  0
   -2.8182   -5.9165    0.0000 C   0  0  0  0  0  0  0  0  0  0  0  0
   -3.1762   -6.6598    0.0000 C   0  0  0  0  0  0  0  0  0  0  0  0
   -3.9989   -6.7214    0.0000 C   0  0  0  0  0  0  0  0  0  0  0  0
   -4.4636   -6.0398    0.0000 C   0  0  0  0  0  0  0  0  0  0  0  0
   -4.1057   -5.2965    0.0000 C   0  0  0  0  0  0  0  0  0  0  0  0
   -3.2830   -5.2348    0.0000 C   0  0  0  0  0  0  0  0  0  0  0  0
   -0.5135   -4.2819    0.0000 N   0  0  0  0  0  0  0  0  0  0  0  0
   -1.0746   -3.6771    0.0000 C   0  0  0  0  0  0  0  0  0  0  0  0
   -0.8315   -2.8888    0.0000 C   0  0  0  0  0  0  0  0  0  0  0  0
   -1.3926   -2.2840    0.0000 C   0  0  0  0  0  0  0  0  0  0  0  0
   -1.1494   -1.4957    0.0000 C   0  0  0  0  0  0  0  0  0  0  0  0
   -0.3451   -1.3121    0.0000 C   0  0  0  0  0  0  0  0  0  0  0  0
   -0.1019   -0.5238    0.0000 C   0  0  0  0  0  0  0  0  0  0  0  0
   -0.6631    0.0810    0.0000 O   0  0  0  0  0  0  0  0  0  0  0  0
    0.2160   -1.9169    0.0000 C   0  0  0  0  0  0  0  0  0  0  0  0
   -0.0272   -2.7052    0.0000 C   0  0  0  0  0  0  0  0  0  0  0  0
    0.2748   -4.0387    0.0000 S   0  0  0  0  0  0  0  0  0  0  0  0
    0.0140   -3.2560    0.0000 O   0  0  0  0  0  0  0  0  0  0  0  0
    0.7548   -3.3677    0.0000 O   0  0  0  0  0  0  0  0  0  0  0  0
    0.9565   -2.8535    0.0000 C   0  0  0  0  0  0  0  0  0  0  0  0
    0.9565   -2.0285    0.0000 C   0  0  0  0  0  0  0  0  0  0  0  0
  1  2  1  0  0  0  0
  2  3  1  0  0  0  0
  3  4  1  1  0  0  0
  3  5  1  0  0  0  0
  5  6  2  0  0  0  0
  6  7  1  0  0  0  0
  7  8  2  0  0  0  0
  8  9  1  0  0  0  0
  9 10  1  0  0  0  0
 10 11  1  0  0  0  0
 11 12  1  6  0  0  0
 12 13  1  0  0  0  0
 13 14  1  0  0  0  0
 14 15  2  0  0  0  0
 15 16  1  0  0  0  0
 16 17  2  0  0  0  0
 17 18  1  0  0  0  0
 18 19  2  0  0  0  0
 14 19  1  0  0  0  0
 11 20  1  0  0  0  0
 20 21  1  1  0  0  0
 20 22  1  0  0  0  0
 22 23  1  6  0  0  0
 22 24  1  0  0  0  0
 24 25  1  6  0  0  0
 25 26  1  0  0  0  0
 26 27  1  0  0  0  0
 27 28  2  0  0  0  0
 28 29  1  0  0  0  0
 29 30  2  0  0  0  0
 30 31  1  0  0  0  0
 31 32  2  0  0  0  0
 27 32  1  0  0  0  0
 24 33  1  0  0  0  0
 33 34  1  0  0  0  0
 34 35  1  0  0  0  0
 35 36  2  0  0  0  0
 36 37  1  0  0  0  0
 37 38  2  0  0  0  0
 38 39  1  0  0  0  0
 39 40  1  0  0  0  0
 38 41  1  0  0  0  0
 41 42  2  0  0  0  0
 35 42  1  0  0  0  0
 33 43  1  0  0  0  0
 10 43  1  0  0  0  0
 43 44  2  0  0  0  0
 43 45  2  0  0  0  0
  8 46  1  0  0  0  0
 46 47  2  0  0  0  0
  5 47  1  0  0  0  0
M  END
> <DRUGBANK_ID>
DB04042

> <DRUG_GROUPS>
experimental

> <GENERIC_NAME>
2-[4-(Hydroxy-Methoxy-Methyl)-Benzyl]-7-(4-Hydroxymethyl-Benzyl)-1,1-Dioxo-3,6-Bis-Phenoxymethyl-1lambda6-[1,2,7]Thiadiazepane-4,5-Diol

> <CHEMICAL_FORMULA>
C35H40N2O9S

> <MOLECULAR_WEIGHT>
664.765

> <EXACT_MASS>
664.245451578

> <IUPAC_NAME>
(3R,4R,5R,6S)-4,5-dihydroxy-2-({4-[(S)-hydroxy(methoxy)methyl]phenyl}methyl)-7-{[4-(hydroxymethyl)phenyl]methyl}-3,6-bis(phenoxymethyl)-1$l^{6},2,7-thiadiazepane-1,1-dione

> <IUPAC_TRADITIONAL_NAME>
(3R,4R,5R,6S)-4,5-dihydroxy-2-({4-[(S)-hydroxy(methoxy)methyl]phenyl}methyl)-7-{[4-(hydroxymethyl)phenyl]methyl}-3,6-bis(phenoxymethyl)-1$l^{6},2,7-thiadiazepane-1,1-dione

> <INCHI_IDENTIFIER>
InChI=1S/C35H40N2O9S/c1-44-35(41)28-18-16-26(17-19-28)21-37-32(24-46-30-10-6-3-7-11-30)34(40)33(39)31(23-45-29-8-4-2-5-9-29)36(47(37,42)43)20-25-12-14-27(22-38)15-13-25/h2-19,31-35,38-41H,20-24H2,1H3/t31-,32+,33+,34+,35-/m0/s1

> <INCHI_KEY>
InChIKey=XLJNZONSWKENRP-DEVDXAACSA-N

> <SMILES>
CO[C@H](O)C1=CC=C(CN2[C@H](COC3=CC=CC=C3)[C@@H](O)[C@H](O)[C@H](COC3=CC=CC=C3)N(CC3=CC=C(CO)C=C3)S2(=O)=O)C=C1

> <JCHEM_ACCEPTOR_COUNT>
10

> <JCHEM_DONOR_COUNT>
4

> <JCHEM_ACIDIC_PKA>
11.66

> <JCHEM_BASIC_PKA>
-2.8

> <JCHEM_PHYSIOLOGICAL_CHARGE>
0

> <ALOGPS_LOGP>
2.97

> <JCHEM_LOGP>
3.07

> <ALOGPS_LOGS>
-3.9

> <JCHEM_POLARIZABILITY>
68.87

> <JCHEM_POLAR_SURFACE_AREA>
149.23

> <JCHEM_REFRACTIVITY>
175.47

> <JCHEM_ROTATABLE_BOND_COUNT>
13

> <ALOGPS_SOLUBILITY>
8.73e-02 g/l __ 

$$$$
