
  Mrv0541 02231217252D          

 10 11  0  0  0  0            999 V2000
    3.2789    2.0625    0.0000 O   0  0  0  0  0  0  0  0  0  0  0  0
    3.2789    1.2375    0.0000 C   0  0  0  0  0  0  0  0  0  0  0  0
    3.9934    0.8250    0.0000 N   0  0  0  0  0  0  0  0  0  0  0  0
    3.9934    0.0000    0.0000 C   0  0  0  0  0  0  0  0  0  0  0  0
    3.2789   -0.4125    0.0000 N   0  0  0  0  0  0  0  0  0  0  0  0
    2.5645    0.0000    0.0000 C   0  0  0  0  0  0  0  0  0  0  0  0
    1.7798   -0.2549    0.0000 C   0  0  0  0  0  0  0  0  0  0  0  0
    1.2949    0.4125    0.0000 C   0  0  0  0  0  0  0  0  0  0  0  0
    1.7798    1.0799    0.0000 N   0  0  0  0  0  0  0  0  0  0  0  0
    2.5645    0.8250    0.0000 C   0  0  0  0  0  0  0  0  0  0  0  0
  1  2  2  0  0  0  0
  2  3  1  0  0  0  0
  3  4  1  0  0  0  0
  4  5  2  0  0  0  0
  5  6  1  0  0  0  0
  6  7  4  0  0  0  0
  7  8  4  0  0  0  0
  8  9  4  0  0  0  0
  9 10  4  0  0  0  0
  2 10  1  0  0  0  0
  6 10  4  0  0  0  0
M  END
> <DRUGBANK_ID>
DB04095

> <DRUG_GROUPS>
experimental

> <GENERIC_NAME>
9-Deazahypoxanthine

> <CHEMICAL_FORMULA>
C6H4N3O

> <MOLECULAR_WEIGHT>
134.1155

> <EXACT_MASS>
134.035436765

> <IUPAC_NAME>
pyrrolo[3,2-d]pyrimidin-4-one

> <IUPAC_TRADITIONAL_NAME>
9-deazahypoxanthine

> <SMILES>
O=C1NC=Nc2ccnc12

> <JCHEM_ACCEPTOR_COUNT>
3

> <JCHEM_DONOR_COUNT>
1

> <JCHEM_ACIDIC_PKA>
8.15

> <JCHEM_BASIC_PKA>
-1.3

> <JCHEM_PHYSIOLOGICAL_CHARGE>
0

> <ALOGPS_LOGP>
-0.33

> <JCHEM_LOGP>
-0.63

> <ALOGPS_LOGS>
-1.6

> <JCHEM_POLARIZABILITY>
12.06

> <JCHEM_POLAR_SURFACE_AREA>
58.64

> <JCHEM_REFRACTIVITY>
32.67

> <JCHEM_ROTATABLE_BOND_COUNT>
0

> <ALOGPS_SOLUBILITY>
3.74e+00 g/l __ 

$$$$
