
  Mrv0541 02231217472D          

 30 32  0  0  1  0            999 V2000
   -3.5724   10.8911    0.0000 N   0  0  0  0  0  0  0  0  0  0  0  0
   -2.8579   10.4786    0.0000 C   0  0  0  0  0  0  0  0  0  0  0  0
   -2.1434   10.8911    0.0000 N   0  0  0  0  0  0  0  0  0  0  0  0
   -2.8579    9.6536    0.0000 C   0  0  0  0  0  0  0  0  0  0  0  0
   -2.1434    9.2411    0.0000 C   0  0  0  0  0  0  0  0  0  0  0  0
   -2.1434    8.4161    0.0000 C   0  0  0  0  0  0  0  0  0  0  0  0
   -2.8579    8.0036    0.0000 C   0  0  0  0  0  0  0  0  0  0  0  0
   -2.8579    7.1786    0.0000 N   0  0  0  0  0  0  0  0  0  0  0  0
   -2.1434    6.7661    0.0000 C   0  0  1  0  0  0  0  0  0  0  0  0
   -1.4289    7.1786    0.0000 C   0  0  0  0  0  0  0  0  0  0  0  0
   -0.7145    6.7661    0.0000 O   0  0  0  0  0  0  0  0  0  0  0  0
   -1.4289    8.0036    0.0000 O   0  0  0  0  0  0  0  0  0  0  0  0
   -2.1434    5.9411    0.0000 C   0  0  0  0  0  0  0  0  0  0  0  0
   -1.4289    5.5286    0.0000 C   0  0  0  0  0  0  0  0  0  0  0  0
   -0.7145    5.9411    0.0000 F   0  0  0  0  0  0  0  0  0  0  0  0
   -1.4289    4.7036    0.0000 C   0  0  0  0  0  0  0  0  0  0  0  0
   -0.7145    4.2911    0.0000 O   0  0  0  0  0  0  0  0  0  0  0  0
   -0.7145    3.4661    0.0000 C   0  0  2  0  0  0  0  0  0  0  0  0
   -0.0470    2.9812    0.0000 C   0  0  0  0  0  0  0  0  0  0  0  0
   -0.3020    2.1965    0.0000 C   0  0  0  0  0  0  0  0  0  0  0  0
   -1.1270    2.1965    0.0000 O   0  0  0  0  0  0  0  0  0  0  0  0
   -1.3819    2.9812    0.0000 C   0  0  0  0  0  0  0  0  0  0  0  0
   -2.1434    4.2911    0.0000 C   0  0  0  0  0  0  0  0  0  0  0  0
   -2.8579    4.7036    0.0000 C   0  0  0  0  0  0  0  0  0  0  0  0
   -3.5724    4.2911    0.0000 O   0  0  0  0  0  0  0  0  0  0  0  0
   -3.5724    3.4661    0.0000 C   0  0  0  0  0  0  0  0  0  0  0  0
   -4.2868    3.0536    0.0000 C   0  0  0  0  0  0  0  0  0  0  0  0
   -2.8579    5.5286    0.0000 C   0  0  0  0  0  0  0  0  0  0  0  0
   -3.5724    8.4161    0.0000 C   0  0  0  0  0  0  0  0  0  0  0  0
   -3.5724    9.2411    0.0000 C   0  0  0  0  0  0  0  0  0  0  0  0
  1  2  2  0  0  0  0
  2  3  1  0  0  0  0
  2  4  1  0  0  0  0
  4  5  2  0  0  0  0
  5  6  1  0  0  0  0
  6  7  2  0  0  0  0
  7  8  1  0  0  0  0
  9  8  1  1  0  0  0
  9 10  1  0  0  0  0
 10 11  1  0  0  0  0
 10 12  2  0  0  0  0
  9 13  1  0  0  0  0
 13 14  2  0  0  0  0
 14 15  1  0  0  0  0
 14 16  1  0  0  0  0
 16 17  1  0  0  0  0
 18 17  1  6  0  0  0
 18 19  1  0  0  0  0
 19 20  1  0  0  0  0
 20 21  1  0  0  0  0
 21 22  1  0  0  0  0
 18 22  1  0  0  0  0
 16 23  2  0  0  0  0
 23 24  1  0  0  0  0
 24 25  1  0  0  0  0
 25 26  1  0  0  0  0
 26 27  1  0  0  0  0
 24 28  2  0  0  0  0
 13 28  1  0  0  0  0
  7 29  1  0  0  0  0
 29 30  2  0  0  0  0
  4 30  1  0  0  0  0
M  END
> <DRUGBANK_ID>
DB04590

> <DRUG_GROUPS>
experimental

> <GENERIC_NAME>
(2R)-({4-[AMINO(IMINO)METHYL]PHENYL}AMINO){5-ETHOXY-2-FLUORO-3-[(3R)-TETRAHYDROFURAN-3-YLOXY]PHENYL}ACETICACID

> <CHEMICAL_FORMULA>
C21H24FN3O5

> <MOLECULAR_WEIGHT>
417.4308

> <EXACT_MASS>
417.169999098

> <IUPAC_NAME>
(2R)-2-[(4-carbamimidoylphenyl)amino]-2-{5-ethoxy-2-fluoro-3-[(3R)-oxolan-3-yloxy]phenyl}acetic acid

> <IUPAC_TRADITIONAL_NAME>
(R)-[(4-carbamimidoylphenyl)amino]({5-ethoxy-2-fluoro-3-[(3R)-oxolan-3-yloxy]phenyl})acetic acid

> <INCHI_IDENTIFIER>
InChI=1S/C21H24FN3O5/c1-2-29-15-9-16(18(22)17(10-15)30-14-7-8-28-11-14)19(21(26)27)25-13-5-3-12(4-6-13)20(23)24/h3-6,9-10,14,19,25H,2,7-8,11H2,1H3,(H3,23,24)(H,26,27)/t14-,19-/m1/s1

> <INCHI_KEY>
InChIKey=PGYOHIAQCFZQDK-AUUYWEPGSA-N

> <SMILES>
CCOC1=CC([C@@H](NC2=CC=C(C=C2)C(N)=N)C(O)=O)=C(F)C(O[C@@H]2CCOC2)=C1

> <JCHEM_ACCEPTOR_COUNT>
8

> <JCHEM_DONOR_COUNT>
4

> <JCHEM_ACIDIC_PKA>
3.78

> <JCHEM_BASIC_PKA>
12.52

> <JCHEM_PHYSIOLOGICAL_CHARGE>
0

> <ALOGPS_LOGP>
2.01

> <JCHEM_LOGP>
0.22

> <ALOGPS_LOGS>
-4.2

> <JCHEM_POLARIZABILITY>
41.82

> <JCHEM_POLAR_SURFACE_AREA>
126.89

> <JCHEM_REFRACTIVITY>
119.87

> <JCHEM_ROTATABLE_BOND_COUNT>
9

> <ALOGPS_SOLUBILITY>
2.96e-02 g/l __ 

$$$$
