
  Mrv0541 02231217582D          

 24 26  0  0  1  0            999 V2000
    9.5630    1.0015    0.0000 Br   0  0  0  0  0  0  0  0  0  0  0  0
    9.5630   -0.6880    0.0000 Cl   0  0  0  0  0  0  0  0  0  0  0  0
    3.7932    0.9817    0.0000 O    0  0  0  0  0  0  0  0  0  0  0  0
    4.5076    0.5693    0.0000 O    0  0  0  0  0  0  0  0  0  0  0  0
    6.6509   -1.4932    0.0000 O    0  0  0  0  0  0  0  0  0  0  0  0
    2.3643   -0.6682    0.0000 N    0  0  0  0  0  0  0  0  0  0  0  0
    5.9364   -0.2558    0.0000 N    0  0  0  0  0  0  0  0  0  0  0  0
    6.6509    0.9817    0.0000 N    0  0  0  0  0  0  0  0  0  0  0  0
    3.0788   -0.2558    0.0000 C    0  0  0  0  0  0  0  0  0  0  0  0
    3.0788    0.5693    0.0000 C    0  0  1  0  0  0  0  0  0  0  0  0
    2.3643    0.9817    0.0000 C    0  0  0  0  0  0  0  0  0  0  0  0
    1.6499    0.5693    0.0000 C    0  0  0  0  0  0  0  0  0  0  0  0
    1.6499   -0.2558    0.0000 C    0  0  0  0  0  0  0  0  0  0  0  0
    3.7932   -0.6682    0.0000 C    0  0  0  0  0  0  0  0  0  0  0  0
    4.5076   -0.2558    0.0000 C    0  0  0  0  0  0  0  0  0  0  0  0
    5.2220   -0.6682    0.0000 C    0  0  0  0  0  0  0  0  0  0  0  0
    6.6509   -0.6682    0.0000 C    0  0  0  0  0  0  0  0  0  0  0  0
    7.3652   -0.2558    0.0000 C    0  0  0  0  0  0  0  0  0  0  0  0
    5.9364    0.5693    0.0000 C    0  0  0  0  0  0  0  0  0  0  0  0
    7.3652    0.5693    0.0000 C    0  0  0  0  0  0  0  0  0  0  0  0
    8.1027   -0.6968    0.0000 C    0  0  0  0  0  0  0  0  0  0  0  0
    8.1027    1.0103    0.0000 C    0  0  0  0  0  0  0  0  0  0  0  0
    8.8502   -0.2729    0.0000 C    0  0  0  0  0  0  0  0  0  0  0  0
    8.8502    0.5864    0.0000 C    0  0  0  0  0  0  0  0  0  0  0  0
  1 24  1  0  0  0  0
  2 23  1  0  0  0  0
 10  3  1  1  0  0  0
  4 15  2  0  0  0  0
  5 17  2  0  0  0  0
  6  9  1  0  0  0  0
  6 13  1  0  0  0  0
  7 16  1  0  0  0  0
  7 17  1  0  0  0  0
  7 19  1  0  0  0  0
  8 19  2  0  0  0  0
  8 20  1  0  0  0  0
  9 10  1  0  0  0  0
  9 14  1  0  0  0  0
 10 11  1  0  0  0  0
 11 12  1  0  0  0  0
 12 13  1  0  0  0  0
 14 15  1  0  0  0  0
 15 16  1  0  0  0  0
 17 18  1  0  0  0  0
 18 20  1  0  0  0  0
 18 21  2  0  0  0  0
 20 22  2  0  0  0  0
 21 23  1  0  0  0  0
 22 24  1  0  0  0  0
 23 24  2  0  0  0  0
M  END
> <DRUGBANK_ID>
DB04866

> <DRUG_GROUPS>
investigational

> <GENERIC_NAME>
Halofuginone

> <SYNONYMS>


> <SALTS>
Halofuginone hydrobromide

> <BRANDS>


> <CHEMICAL_FORMULA>
C16H17BrClN3O3

> <MOLECULAR_WEIGHT>
414.681

> <EXACT_MASS>
413.014181779

> <IUPAC_NAME>
7-bromo-6-chloro-3-{3-[(3R)-3-hydroxypiperidin-2-yl]-2-oxopropyl}-3,4-dihydroquinazolin-4-one

> <IUPAC_TRADITIONAL_NAME>
7-bromo-6-chloro-3-{3-[(3R)-3-hydroxypiperidin-2-yl]-2-oxopropyl}quinazolin-4-one

> <INCHI_IDENTIFIER>
InChI=1S/C16H17BrClN3O3/c17-11-6-13-10(5-12(11)18)16(24)21(8-20-13)7-9(22)4-14-15(23)2-1-3-19-14/h5-6,8,14-15,19,23H,1-4,7H2/t14?,15-/m1/s1

> <INCHI_KEY>
InChIKey=LVASCWIMLIKXLA-YSSOQSIOSA-N

> <SMILES>
O[C@@H]1CCCNC1CC(=O)CN1C=NC2=CC(Br)=C(Cl)C=C2C1=O

> <JCHEM_ACCEPTOR_COUNT>
5

> <JCHEM_DONOR_COUNT>
2

> <JCHEM_ACIDIC_PKA>
14.48

> <JCHEM_BASIC_PKA>
9.28

> <JCHEM_PHYSIOLOGICAL_CHARGE>
1

> <ALOGPS_LOGP>
1.38

> <JCHEM_LOGP>
1.71

> <ALOGPS_LOGS>
-3.6

> <JCHEM_POLARIZABILITY>
37.59

> <JCHEM_POLAR_SURFACE_AREA>
82

> <JCHEM_REFRACTIVITY>
95.87

> <JCHEM_ROTATABLE_BOND_COUNT>
4

> <ALOGPS_SOLUBILITY>
1.14e-01 g/l __ 

$$$$
