
  Mrv0541 02231217332D          

 25 27  0  0  1  0            999 V2000
   -0.3984    0.7541    0.0000 C   0  0  0  0  0  0  0  0  0  0  0  0
   -0.1435   -0.0305    0.0000 N   0  0  0  0  0  0  0  0  0  0  0  0
   -0.6284   -0.6979    0.0000 C   0  0  0  0  0  0  0  0  0  0  0  0
   -0.1435   -1.3654    0.0000 N   0  0  0  0  0  0  0  0  0  0  0  0
   -0.3984   -2.1500    0.0000 C   0  0  2  0  0  0  0  0  0  0  0  0
    0.0865   -2.8174    0.0000 O   0  0  0  0  0  0  0  0  0  0  0  0
   -0.3984   -3.4849    0.0000 C   0  0  1  0  0  0  0  0  0  0  0  0
   -0.1435   -4.2695    0.0000 C   0  0  0  0  0  0  0  0  0  0  0  0
   -0.6955   -4.8826    0.0000 O   0  0  0  0  0  0  0  0  0  0  0  0
   -0.4406   -5.6672    0.0000 P   0  0  0  0  0  0  0  0  0  0  0  0
   -0.1857   -6.4518    0.0000 O   0  0  0  0  0  0  0  0  0  0  0  0
    0.3440   -5.4123    0.0000 O   0  0  0  0  0  0  0  0  0  0  0  0
   -1.2252   -5.9222    0.0000 O   0  0  0  0  0  0  0  0  0  0  0  0
   -1.1831   -3.2299    0.0000 C   0  0  2  0  0  0  0  0  0  0  0  0
   -1.8505   -3.7149    0.0000 O   0  0  0  0  0  0  0  0  0  0  0  0
   -1.1831   -2.4049    0.0000 C   0  0  1  0  0  0  0  0  0  0  0  0
   -1.8505   -1.9200    0.0000 O   0  0  0  0  0  0  0  0  0  0  0  0
    0.6411   -1.1104    0.0000 C   0  0  0  0  0  0  0  0  0  0  0  0
    0.6411   -0.2854    0.0000 C   0  0  0  0  0  0  0  0  0  0  0  0
    1.3556    0.1271    0.0000 C   0  0  0  0  0  0  0  0  0  0  0  0
    1.3556    0.9521    0.0000 O   0  0  0  0  0  0  0  0  0  0  0  0
    2.0701   -0.2854    0.0000 N   0  0  0  0  0  0  0  0  0  0  0  0
    2.0701   -1.1104    0.0000 C   0  0  0  0  0  0  0  0  0  0  0  0
    2.7845   -1.5229    0.0000 N   0  0  0  0  0  0  0  0  0  0  0  0
    1.3556   -1.5229    0.0000 N   0  0  0  0  0  0  0  0  0  0  0  0
  1  2  1  0  0  0  0
  2  3  1  0  0  0  0
  3  4  1  0  0  0  0
  5  4  1  6  0  0  0
  5  6  1  0  0  0  0
  6  7  1  0  0  0  0
  7  8  1  1  0  0  0
  8  9  1  0  0  0  0
  9 10  1  0  0  0  0
 10 11  1  0  0  0  0
 10 12  1  0  0  0  0
 10 13  2  0  0  0  0
  7 14  1  0  0  0  0
 14 15  1  6  0  0  0
 14 16  1  0  0  0  0
  5 16  1  0  0  0  0
 16 17  1  1  0  0  0
  4 18  1  0  0  0  0
 18 19  2  0  0  0  0
  2 19  1  0  0  0  0
 19 20  1  0  0  0  0
 20 21  2  0  0  0  0
 20 22  1  0  0  0  0
 22 23  1  0  0  0  0
 23 24  1  0  0  0  0
 23 25  2  0  0  0  0
 18 25  1  0  0  0  0
M  END
> <DRUGBANK_ID>
DB04259

> <DRUG_GROUPS>
experimental

> <GENERIC_NAME>
7n-Methyl-8-Hydroguanosine-5'-Monophosphate

> <CHEMICAL_FORMULA>
C11H18N5O8P

> <MOLECULAR_WEIGHT>
379.2631

> <EXACT_MASS>
379.089299089

> <IUPAC_NAME>
{[(2S,3R,4R,5R)-5-(2-amino-7-methyl-6-oxo-6,7,8,9-tetrahydro-1H-purin-9-yl)-3,4-dihydroxyoxolan-2-yl]methoxy}phosphonic acid

> <IUPAC_TRADITIONAL_NAME>
[(2S,3R,4R,5R)-5-(2-amino-7-methyl-6-oxo-1,8-dihydropurin-9-yl)-3,4-dihydroxyoxolan-2-yl]methoxyphosphonic acid

> <INCHI_IDENTIFIER>
InChI=1S/C11H18N5O8P/c1-15-3-16(8-5(15)9(19)14-11(12)13-8)10-7(18)6(17)4(24-10)2-23-25(20,21)22/h4,6-7,10,17-18H,2-3H2,1H3,(H2,20,21,22)(H3,12,13,14,19)/t4-,6-,7+,10+/m0/s1

> <INCHI_KEY>
InChIKey=ZMWJGXGSWZFZPJ-FCIPNVEPSA-N

> <SMILES>
CN1CN([C@@H]2O[C@@H](COP(O)(O)=O)[C@H](O)[C@H]2O)C2=C1C(=O)NC(N)=N2

> <JCHEM_ACCEPTOR_COUNT>
11

> <JCHEM_DONOR_COUNT>
6

> <JCHEM_ACIDIC_PKA>
1.22

> <JCHEM_BASIC_PKA>
4.22

> <JCHEM_PHYSIOLOGICAL_CHARGE>
-2

> <ALOGPS_LOGP>
-1.9

> <JCHEM_LOGP>
-2.9

> <ALOGPS_LOGS>
-1.6

> <JCHEM_POLARIZABILITY>
33.47

> <JCHEM_POLAR_SURFACE_AREA>
190.41

> <JCHEM_REFRACTIVITY>
90.26

> <JCHEM_ROTATABLE_BOND_COUNT>
4

> <ALOGPS_SOLUBILITY>
8.92e+00 g/l __ 

$$$$
