YPA
  Mrv0541 02231217342D          

 31 34  0  0  0  0            999 V2000
    3.8204    2.9639    0.0000 C   0  0  0  0  0  0  0  0  0  0  0  0
    3.0135    3.1354    0.0000 C   0  0  0  0  0  0  0  0  0  0  0  0
    2.4614    2.5223    0.0000 C   0  0  0  0  0  0  0  0  0  0  0  0
    2.7164    1.7377    0.0000 C   0  0  0  0  0  0  0  0  0  0  0  0
    3.5233    1.5662    0.0000 C   0  0  0  0  0  0  0  0  0  0  0  0
    4.0754    2.1793    0.0000 C   0  0  0  0  0  0  0  0  0  0  0  0
    1.6364    2.5223    0.0000 C   0  0  0  0  0  0  0  0  0  0  0  0
    1.3815    1.7377    0.0000 C   0  0  0  0  0  0  0  0  0  0  0  0
    2.0489    1.2528    0.0000 N   0  0  0  0  0  0  0  0  0  0  0  0
    1.0844    3.1354    0.0000 C   0  0  0  0  0  0  0  0  0  0  0  0
    0.2774    2.9639    0.0000 C   0  0  0  0  0  0  0  0  0  0  0  0
    0.0225    2.1793    0.0000 C   0  0  0  0  0  0  0  0  0  0  0  0
    0.5745    1.5662    0.0000 C   0  0  0  0  0  0  0  0  0  0  0  0
    2.0489    0.4278    0.0000 C   0  0  0  0  0  0  0  0  0  0  0  0
    1.3345    0.0153    0.0000 C   0  0  0  0  0  0  0  0  0  0  0  0
    1.3345   -0.8097    0.0000 O   0  0  0  0  0  0  0  0  0  0  0  0
    0.6200   -1.2222    0.0000 C   0  0  0  0  0  0  0  0  0  0  0  0
    0.6200   -2.0472    0.0000 C   0  0  0  0  0  0  0  0  0  0  0  0
   -0.0945   -2.4597    0.0000 C   0  0  0  0  0  0  0  0  0  0  0  0
   -0.8090   -2.0472    0.0000 C   0  0  0  0  0  0  0  0  0  0  0  0
   -0.8090   -1.2222    0.0000 C   0  0  0  0  0  0  0  0  0  0  0  0
   -0.0945   -0.8097    0.0000 C   0  0  0  0  0  0  0  0  0  0  0  0
   -1.5234   -2.4597    0.0000 C   0  0  0  0  0  0  0  0  0  0  0  0
   -2.2379   -2.0472    0.0000 C   0  0  1  0  0  0  0  0  0  0  0  0
   -2.2379   -1.2222    0.0000 C   0  0  0  0  0  0  0  0  0  0  0  0
   -2.9524   -0.8097    0.0000 O   0  0  0  0  0  0  0  0  0  0  0  0
   -1.5234   -0.8097    0.0000 O   0  0  0  0  0  0  0  0  0  0  0  0
   -2.9524   -2.4597    0.0000 O   0  0  0  0  0  0  0  0  0  0  0  0
   -3.6668   -2.0472    0.0000 C   0  0  0  0  0  0  0  0  0  0  0  0
   -4.3813   -2.4597    0.0000 C   0  0  0  0  0  0  0  0  0  0  0  0
   -1.7322   -1.7552    0.0000 H   0  0  0  0  0  0  0  0  0  0  0  0
  1  2  2  0  0  0  0
  1  6  1  0  0  0  0
  2  3  1  0  0  0  0
  3  4  2  0  0  0  0
  3  7  1  0  0  0  0
  4  5  1  0  0  0  0
  4  9  1  0  0  0  0
  5  6  2  0  0  0  0
  7  8  2  0  0  0  0
  7 10  1  0  0  0  0
  8  9  1  0  0  0  0
  8 13  1  0  0  0  0
  9 14  1  0  0  0  0
 10 11  2  0  0  0  0
 11 12  1  0  0  0  0
 12 13  2  0  0  0  0
 14 15  1  0  0  0  0
 15 16  1  0  0  0  0
 16 17  1  0  0  0  0
 17 18  2  0  0  0  0
 17 22  1  0  0  0  0
 18 19  1  0  0  0  0
 19 20  2  0  0  0  0
 20 21  1  0  0  0  0
 20 23  1  0  0  0  0
 21 22  2  0  0  0  0
 23 24  1  0  0  0  0
 24 25  1  0  0  0  0
 24 28  1  1  0  0  0
 24 31  1  1  0  0  0
 25 26  1  0  0  0  0
 25 27  2  0  0  0  0
 28 29  1  0  0  0  0
 29 30  1  0  0  0  0
M  END
> <DRUGBANK_ID>
DB04270

> <DRUG_GROUPS>
experimental

> <GENERIC_NAME>
(S)-3-(4-(2-Carbazol-9-Yl-Ethoxy)-Phenyl)-2-Ethoxy-Propionic Acid

> <CHEMICAL_FORMULA>
C25H25NO4

> <MOLECULAR_WEIGHT>
403.4703

> <EXACT_MASS>
403.178358293

> <IUPAC_NAME>
(2S)-3-{4-[2-(9H-carbazol-9-yl)ethoxy]phenyl}-2-ethoxypropanoic acid

> <IUPAC_TRADITIONAL_NAME>
(2S)-3-{4-[2-(carbazol-9-yl)ethoxy]phenyl}-2-ethoxypropanoic acid

> <INCHI_IDENTIFIER>
InChI=1S/C25H25NO4/c1-2-29-24(25(27)28)17-18-11-13-19(14-12-18)30-16-15-26-22-9-5-3-7-20(22)21-8-4-6-10-23(21)26/h3-14,24H,2,15-17H2,1H3,(H,27,28)/t24-/m0/s1

> <INCHI_KEY>
InChIKey=WUZIMDSVRIBNNI-DEOSSOPVSA-N

> <SMILES>
[H][C@@](CC1=CC=C(OCCN2C3=C(C=CC=C3)C3=C2C=CC=C3)C=C1)(OCC)C(O)=O

> <JCHEM_ACCEPTOR_COUNT>
4

> <JCHEM_DONOR_COUNT>
1

> <JCHEM_ACIDIC_PKA>
3.73

> <JCHEM_BASIC_PKA>
-4.1

> <JCHEM_PHYSIOLOGICAL_CHARGE>
-1

> <ALOGPS_LOGP>
5.3

> <JCHEM_LOGP>
5.17

> <ALOGPS_LOGS>
-5.3

> <JCHEM_POLARIZABILITY>
44.44

> <JCHEM_POLAR_SURFACE_AREA>
60.69

> <JCHEM_REFRACTIVITY>
115.82

> <JCHEM_ROTATABLE_BOND_COUNT>
9

> <ALOGPS_SOLUBILITY>
1.85e-03 g/l __ 

$$$$
