
  Mrv0541 02231217232D          

 57 61  0  0  1  0            999 V2000
   -8.8545   -3.5525    0.0000 N   0  0  0  0  0  0  0  0  0  0  0  0
   -8.0699   -3.8075    0.0000 C   0  0  0  0  0  0  0  0  0  0  0  0
   -7.4568   -3.2554    0.0000 O   0  0  0  0  0  0  0  0  0  0  0  0
   -7.8984   -4.6144    0.0000 C   0  0  0  0  0  0  0  0  0  0  0  0
   -7.1447   -4.9500    0.0000 C   0  0  0  0  0  0  0  0  0  0  0  0
   -6.4302   -4.5375    0.0000 C   0  0  0  0  0  0  0  0  0  0  0  0
   -5.7158   -4.9500    0.0000 C   0  0  0  0  0  0  0  0  0  0  0  0
   -5.0013   -4.5375    0.0000 C   0  0  0  0  0  0  0  0  0  0  0  0
   -5.0013   -3.7125    0.0000 O   0  0  0  0  0  0  0  0  0  0  0  0
   -4.2868   -4.9500    0.0000 N   0  0  0  0  0  0  0  0  0  0  0  0
   -4.2868   -5.7750    0.0000 C   0  0  0  0  0  0  0  0  0  0  0  0
   -3.5724   -6.1875    0.0000 C   0  0  0  0  0  0  0  0  0  0  0  0
   -2.8579   -5.7750    0.0000 C   0  0  0  0  0  0  0  0  0  0  0  0
   -2.1434   -6.1875    0.0000 C   0  0  0  0  0  0  0  0  0  0  0  0
   -2.1434   -7.0125    0.0000 C   0  0  0  0  0  0  0  0  0  0  0  0
   -1.4289   -7.4250    0.0000 N   0  0  0  0  0  0  0  0  0  0  0  0
   -1.4289   -8.2500    0.0000 C   0  0  0  0  0  0  0  0  0  0  0  0
   -0.7145   -8.6625    0.0000 N   0  0  0  0  0  0  0  0  0  0  0  0
   -2.1434   -8.6625    0.0000 N   0  0  0  0  0  0  0  0  0  0  0  0
   -2.8579   -8.2500    0.0000 C   0  0  0  0  0  0  0  0  0  0  0  0
   -3.5724   -8.6625    0.0000 O   0  0  0  0  0  0  0  0  0  0  0  0
   -2.8579   -7.4250    0.0000 C   0  0  0  0  0  0  0  0  0  0  0  0
   -3.5724   -7.0125    0.0000 N   0  0  0  0  0  0  0  0  0  0  0  0
   -3.5724   -4.5375    0.0000 C   0  0  0  0  0  0  0  0  0  0  0  0
   -3.5724   -3.7125    0.0000 C   0  0  0  0  0  0  0  0  0  0  0  0
   -2.8579   -3.3000    0.0000 C   0  0  0  0  0  0  0  0  0  0  0  0
   -2.1434   -3.7125    0.0000 C   0  0  0  0  0  0  0  0  0  0  0  0
   -2.1434   -4.5375    0.0000 C   0  0  0  0  0  0  0  0  0  0  0  0
   -2.8579   -4.9500    0.0000 C   0  0  0  0  0  0  0  0  0  0  0  0
   -1.4289   -3.3000    0.0000 C   0  0  0  0  0  0  0  0  0  0  0  0
   -1.4289   -2.4750    0.0000 O   0  0  0  0  0  0  0  0  0  0  0  0
   -0.7145   -3.7125    0.0000 N   0  0  0  0  0  0  0  0  0  0  0  0
    0.0000   -3.3000    0.0000 C   0  0  2  0  0  0  0  0  0  0  0  0
    0.7145   -3.7125    0.0000 C   0  0  0  0  0  0  0  0  0  0  0  0
    1.4289   -3.3000    0.0000 C   0  0  0  0  0  0  0  0  0  0  0  0
    2.1434   -3.7125    0.0000 C   0  0  0  0  0  0  0  0  0  0  0  0
    2.8579   -3.3000    0.0000 O   0  0  0  0  0  0  0  0  0  0  0  0
    2.1434   -4.5375    0.0000 O   0  0  0  0  0  0  0  0  0  0  0  0
    0.0000   -2.4750    0.0000 C   0  0  0  0  0  0  0  0  0  0  0  0
    0.7145   -2.0625    0.0000 O   0  0  0  0  0  0  0  0  0  0  0  0
   -0.7145   -2.0625    0.0000 O   0  0  0  0  0  0  0  0  0  0  0  0
   -7.2309   -5.7705    0.0000 N   0  0  0  0  0  0  0  0  0  0  0  0
   -8.0379   -5.9420    0.0000 C   0  0  0  0  0  0  0  0  0  0  0  0
   -8.4504   -5.2275    0.0000 N   0  0  0  0  0  0  0  0  0  0  0  0
   -6.6179   -6.3225    0.0000 C   0  0  2  0  0  0  0  0  0  0  0  0
   -5.8109   -6.1510    0.0000 O   0  0  0  0  0  0  0  0  0  0  0  0
   -5.3984   -6.8655    0.0000 C   0  0  1  0  0  0  0  0  0  0  0  0
   -4.5779   -6.9517    0.0000 C   0  0  0  0  0  0  0  0  0  0  0  0
   -4.2423   -7.7054    0.0000 O   0  0  0  0  0  0  0  0  0  0  0  0
   -4.7273   -8.3728    0.0000 P   0  0  0  0  0  0  0  0  0  0  0  0
   -5.2122   -9.0402    0.0000 O   0  0  0  0  0  0  0  0  0  0  0  0
   -5.3947   -7.8879    0.0000 O   0  0  0  0  0  0  0  0  0  0  0  0
   -4.0598   -8.8577    0.0000 O   0  0  0  0  0  0  0  0  0  0  0  0
   -5.9504   -7.4786    0.0000 C   0  0  2  0  0  0  0  0  0  0  0  0
   -5.7789   -8.2855    0.0000 O   0  0  0  0  0  0  0  0  0  0  0  0
   -6.7041   -7.1430    0.0000 C   0  0  1  0  0  0  0  0  0  0  0  0
   -7.4186   -7.5555    0.0000 O   0  0  0  0  0  0  0  0  0  0  0  0
  1  2  1  0  0  0  0
  2  3  2  0  0  0  0
  2  4  1  0  0  0  0
  4  5  2  0  0  0  0
  5  6  1  0  0  0  0
  6  7  2  0  0  0  0
  7  8  1  0  0  0  0
  8  9  2  0  0  0  0
  8 10  1  0  0  0  0
 10 11  1  0  0  0  0
 11 12  1  0  0  0  0
 12 13  2  0  0  0  0
 13 14  1  0  0  0  0
 14 15  2  0  0  0  0
 15 16  1  0  0  0  0
 16 17  2  0  0  0  0
 17 18  1  0  0  0  0
 17 19  1  0  0  0  0
 19 20  1  0  0  0  0
 20 21  2  0  0  0  0
 20 22  1  0  0  0  0
 15 22  1  0  0  0  0
 22 23  2  0  0  0  0
 12 23  1  0  0  0  0
 10 24  1  0  0  0  0
 24 25  2  0  0  0  0
 25 26  1  0  0  0  0
 26 27  2  0  0  0  0
 27 28  1  0  0  0  0
 28 29  2  0  0  0  0
 24 29  1  0  0  0  0
 27 30  1  0  0  0  0
 30 31  2  0  0  0  0
 30 32  1  0  0  0  0
 33 32  1  1  0  0  0
 33 34  1  0  0  0  0
 34 35  1  0  0  0  0
 35 36  1  0  0  0  0
 36 37  1  0  0  0  0
 36 38  2  0  0  0  0
 33 39  1  0  0  0  0
 39 40  1  0  0  0  0
 39 41  2  0  0  0  0
  5 42  1  0  0  0  0
 42 43  1  0  0  0  0
 43 44  2  0  0  0  0
  4 44  1  0  0  0  0
 45 42  1  6  0  0  0
 45 46  1  0  0  0  0
 46 47  1  0  0  0  0
 47 48  1  1  0  0  0
 48 49  1  0  0  0  0
 49 50  1  0  0  0  0
 50 51  1  0  0  0  0
 50 52  1  0  0  0  0
 50 53  2  0  0  0  0
 47 54  1  0  0  0  0
 54 55  1  6  0  0  0
 54 56  1  0  0  0  0
 45 56  1  0  0  0  0
 56 57  1  1  0  0  0
M  END
> <DRUGBANK_ID>
DB04057

> <DRUG_GROUPS>
experimental

> <GENERIC_NAME>
Beta-Dadf, Msa, Multisubstrate Adduct Inhibitor

> <CHEMICAL_FORMULA>
C32H34N9O15P

> <MOLECULAR_WEIGHT>
815.6374

> <EXACT_MASS>
815.191197975

> <IUPAC_NAME>
(2R)-2-({4-[(2E)-N-({2-amino-4-oxo-3H,4H-pyrido[3,2-d]pyrimidin-6-yl}methyl)-3-{4-carbamoyl-1-[(2R,3R,4R,5S)-3,4-dihydroxy-5-[(phosphonooxy)methyl]oxolan-2-yl]-1H-imidazol-5-yl}prop-2-enamido]phenyl}formamido)pentanedioic acid

> <IUPAC_TRADITIONAL_NAME>
(2R)-2-({4-[(2E)-N-({2-amino-4-oxo-3H-pyrido[3,2-d]pyrimidin-6-yl}methyl)-3-{5-carbamoyl-3-[(2R,3R,4R,5S)-3,4-dihydroxy-5-[(phosphonooxy)methyl]oxolan-2-yl]imidazol-4-yl}prop-2-enamido]phenyl}formamido)pentanedioic acid

> <INCHI_IDENTIFIER>
InChI=1S/C32H34N9O15P/c33-27(47)24-19(41(13-35-24)30-26(46)25(45)20(56-30)12-55-57(52,53)54)8-9-21(42)40(11-15-3-6-17-23(36-15)29(49)39-32(34)38-17)16-4-1-14(2-5-16)28(48)37-18(31(50)51)7-10-22(43)44/h1-6,8-9,13,18,20,25-26,30,45-46H,7,10-12H2,(H2,33,47)(H,37,48)(H,43,44)(H,50,51)(H2,52,53,54)(H3,34,38,39,49)/b9-8+/t18-,20+,25+,26-,30-/m1/s1

> <INCHI_KEY>
InChIKey=XRZABKCMPVBQFX-PXOKFWMZSA-N

> <SMILES>
O[C@@H]1[C@@H](O)[C@@H](O[C@H]1COP(O)(O)=O)N1C=NC(C(N)=O)=C1\C=C\C(=O)N(CC1=CC=C2N=C(N)NC(=O)C2=N1)C1=CC=C(C=C1)C(=O)N[C@H](CCC(O)=O)C(O)=O

> <JCHEM_ACCEPTOR_COUNT>
18

> <JCHEM_DONOR_COUNT>
10

> <JCHEM_ACIDIC_PKA>
1.21

> <JCHEM_BASIC_PKA>
4.33

> <JCHEM_PHYSIOLOGICAL_CHARGE>
-4

> <ALOGPS_LOGP>
-1

> <JCHEM_LOGP>
-3.5

> <ALOGPS_LOGS>
-3.9

> <JCHEM_POLARIZABILITY>
74.68

> <JCHEM_POLAR_SURFACE_AREA>
381.74

> <JCHEM_REFRACTIVITY>
190.5

> <JCHEM_ROTATABLE_BOND_COUNT>
16

> <ALOGPS_SOLUBILITY>
1.13e-01 g/l __ 

$$$$
