
  Mrv0541 02231218072D          

 22 22  0  0  0  0            999 V2000
    3.9849    4.5054    0.0000 O   0  0  0  0  0  0  0  0  0  0  0  0
    6.4600    3.0765    0.0000 O   0  0  0  0  0  0  0  0  0  0  0  0
    5.2224    4.6160    0.0000 N   0  0  0  0  0  0  0  0  0  0  0  0
    5.2224    3.7910    0.0000 C   0  0  0  0  0  0  0  0  0  0  0  0
    5.2224    2.9659    0.0000 C   0  0  0  0  0  0  0  0  0  0  0  0
    4.5080    2.5534    0.0000 C   0  0  0  0  0  0  0  0  0  0  0  0
    4.3974    3.7910    0.0000 C   0  0  0  0  0  0  0  0  0  0  0  0
    6.0475    3.7910    0.0000 C   0  0  0  0  0  0  0  0  0  0  0  0
    3.7935   -1.9842    0.0000 C   0  0  0  0  0  0  0  0  0  0  0  0
    3.7935   -1.1592    0.0000 C   0  0  0  0  0  0  0  0  0  0  0  0
    3.0791   -2.3967    0.0000 C   0  0  0  0  0  0  0  0  0  0  0  0
    4.5080    1.7284    0.0000 C   0  0  0  0  0  0  0  0  0  0  0  0
    4.5080   -0.7466    0.0000 C   0  0  0  0  0  0  0  0  0  0  0  0
    3.0791   -3.2217    0.0000 C   0  0  0  0  0  0  0  0  0  0  0  0
    4.5080    0.0784    0.0000 C   0  0  0  0  0  0  0  0  0  0  0  0
    2.3645   -3.6342    0.0000 C   0  0  0  0  0  0  0  0  0  0  0  0
    3.7935    1.3159    0.0000 C   0  0  0  0  0  0  0  0  0  0  0  0
    5.2224    1.3159    0.0000 C   0  0  0  0  0  0  0  0  0  0  0  0
    3.7935    0.4909    0.0000 C   0  0  0  0  0  0  0  0  0  0  0  0
    5.2224    0.4909    0.0000 C   0  0  0  0  0  0  0  0  0  0  0  0
    2.3645   -4.4592    0.0000 C   0  0  0  0  0  0  0  0  0  0  0  0
    1.6500   -4.8717    0.0000 C   0  0  0  0  0  0  0  0  0  0  0  0
  1  7  1  0  0  0  0
  2  8  1  0  0  0  0
  3  4  1  0  0  0  0
  4  5  1  0  0  0  0
  4  7  1  0  0  0  0
  4  8  1  0  0  0  0
  5  6  1  0  0  0  0
  6 12  1  0  0  0  0
  9 10  1  0  0  0  0
  9 11  1  0  0  0  0
 10 13  1  0  0  0  0
 11 14  1  0  0  0  0
 12 17  2  0  0  0  0
 12 18  1  0  0  0  0
 13 15  1  0  0  0  0
 14 16  1  0  0  0  0
 15 19  2  0  0  0  0
 15 20  1  0  0  0  0
 16 21  1  0  0  0  0
 17 19  1  0  0  0  0
 18 20  2  0  0  0  0
 21 22  1  0  0  0  0
M  END
> <DRUGBANK_ID>
DB05286

> <DRUG_GROUPS>
investigational

> <GENERIC_NAME>
FTY 720

> <CHEMICAL_FORMULA>
C19H33NO2

> <MOLECULAR_WEIGHT>
307.4708

> <EXACT_MASS>
307.251129305

> <IUPAC_NAME>
2-amino-2-[2-(4-octylphenyl)ethyl]propane-1,3-diol

> <IUPAC_TRADITIONAL_NAME>
fingolimod

> <INCHI_IDENTIFIER>
InChI=1S/C19H33NO2/c1-2-3-4-5-6-7-8-17-9-11-18(12-10-17)13-14-19(20,15-21)16-22/h9-12,21-22H,2-8,13-16,20H2,1H3

> <INCHI_KEY>
InChIKey=KKGQTZUTZRNORY-UHFFFAOYSA-N

> <SMILES>
CCCCCCCCC1=CC=C(CCC(N)(CO)CO)C=C1

> <JCHEM_ACCEPTOR_COUNT>
3

> <JCHEM_DONOR_COUNT>
3

> <JCHEM_ACIDIC_PKA>
14.41

> <JCHEM_BASIC_PKA>
9.38

> <JCHEM_PHYSIOLOGICAL_CHARGE>
1

> <ALOGPS_LOGP>
4

> <JCHEM_LOGP>
4.06

> <ALOGPS_LOGS>
-4.7

> <JCHEM_POLARIZABILITY>
38.81

> <JCHEM_POLAR_SURFACE_AREA>
66.48

> <JCHEM_REFRACTIVITY>
93.28

> <JCHEM_ROTATABLE_BOND_COUNT>
12

> <ALOGPS_SOLUBILITY>
6.90e-03 g/l __ 

$$$$
