
  Mrv0541 02231218082D          

 32 34  0  0  1  0            999 V2000
    7.9284    4.5423    0.0000 O   0  0  0  0  0  0  0  0  0  0  0  0
    1.6500   -4.1363    0.0000 O   0  0  0  0  0  0  0  0  0  0  0  0
    4.5080   -4.1363    0.0000 O   0  0  0  0  0  0  0  0  0  0  0  0
    4.5080    0.8138    0.0000 C   0  0  2  0  0  0  0  0  0  0  0  0
    5.2886    1.0653    0.0000 C   0  0  2  0  0  0  0  0  0  0  0  0
    4.5080   -0.0112    0.0000 C   0  0  1  0  0  0  0  0  0  0  0  0
    5.7701    0.4013    0.0000 C   0  0  0  0  0  0  0  0  0  0  0  0
    5.2886   -0.2626    0.0000 C   0  0  0  0  0  0  0  0  0  0  0  0
    3.7935    1.2263    0.0000 C   0  0  0  0  0  0  0  0  0  0  0  0
    5.5449    1.8494    0.0000 C   0  0  1  0  0  0  0  0  0  0  0  0
    3.7935   -0.4237    0.0000 C   0  0  0  0  0  0  0  0  0  0  0  0
    4.5080    1.6388    0.0000 C   0  0  0  0  0  0  0  0  0  0  0  0
    3.0791    0.8138    0.0000 C   0  0  0  0  0  0  0  0  0  0  0  0
    3.0791   -0.0112    0.0000 C   0  0  0  0  0  0  0  0  0  0  0  0
    6.3522    2.0196    0.0000 C   0  0  0  0  0  0  0  0  0  0  0  0
    4.9939    2.4635    0.0000 C   0  0  0  0  0  0  0  0  0  0  0  0
    3.7935   -1.2487    0.0000 C   0  0  0  0  0  0  0  0  0  0  0  0
    6.6086    2.8037    0.0000 C   0  0  0  0  0  0  0  0  0  0  0  0
    7.4158    2.9739    0.0000 C   0  0  0  0  0  0  0  0  0  0  0  0
    3.0791   -1.6613    0.0000 C   0  0  0  0  0  0  0  0  0  0  0  0
    7.6721    3.7581    0.0000 C   0  0  0  0  0  0  0  0  0  0  0  0
    3.0791   -2.4863    0.0000 C   0  0  0  0  0  0  0  0  0  0  0  0
    2.3645   -2.8988    0.0000 C   0  0  0  0  0  0  0  0  0  0  0  0
    6.8879    4.0144    0.0000 C   0  0  0  0  0  0  0  0  0  0  0  0
    8.4563    3.5018    0.0000 C   0  0  0  0  0  0  0  0  0  0  0  0
    3.7935   -2.8988    0.0000 C   0  0  0  0  0  0  0  0  0  0  0  0
    2.3645   -3.7238    0.0000 C   0  0  2  0  0  0  0  0  0  0  0  0
    3.7935   -3.7238    0.0000 C   0  0  2  0  0  0  0  0  0  0  0  0
    3.0791   -4.1363    0.0000 C   0  0  0  0  0  0  0  0  0  0  0  0
    4.5080   -2.4863    0.0000 C   0  0  0  0  0  0  0  0  0  0  0  0
    5.9406    1.1676    0.0000 H   0  0  0  0  0  0  0  0  0  0  0  0
    4.5779   -0.6675    0.0000 H   0  0  0  0  0  0  0  0  0  0  0  0
  1 21  1  0  0  0  0
 27  2  1  6  0  0  0
 28  3  1  1  0  0  0
  4  5  1  0  0  0  0
  4  6  1  0  0  0  0
  4  9  1  0  0  0  0
  4 12  1  1  0  0  0
  5  7  1  0  0  0  0
  5 10  1  0  0  0  0
  5 31  1  6  0  0  0
  6  8  1  0  0  0  0
  6 11  1  0  0  0  0
  6 32  1  6  0  0  0
  7  8  1  0  0  0  0
  9 13  1  0  0  0  0
 10 15  1  0  0  0  0
 10 16  1  6  0  0  0
 11 14  1  0  0  0  0
 11 17  2  0  0  0  0
 13 14  1  0  0  0  0
 15 18  1  0  0  0  0
 17 20  1  0  0  0  0
 18 19  1  0  0  0  0
 19 21  1  0  0  0  0
 20 22  2  0  0  0  0
 21 24  1  0  0  0  0
 21 25  1  0  0  0  0
 22 23  1  0  0  0  0
 22 26  1  0  0  0  0
 23 27  1  0  0  0  0
 26 28  1  0  0  0  0
 26 30  2  0  0  0  0
 27 29  1  0  0  0  0
 28 29  1  0  0  0  0
M  END
> <DRUGBANK_ID>
DB05314

> <DRUG_GROUPS>
investigational

> <GENERIC_NAME>
DN-101

> <BRANDS>


> <CHEMICAL_FORMULA>
C27H44O3

> <MOLECULAR_WEIGHT>
416.6365

> <EXACT_MASS>
416.329045274

> <IUPAC_NAME>
(1R,3S,5Z)-5-{2-[(1R,3aS,4E,7aR)-1-[(2R)-6-hydroxy-6-methylheptan-2-yl]-7a-methyl-octahydro-1H-inden-4-ylidene]ethylidene}-4-methylidenecyclohexane-1,3-diol

> <IUPAC_TRADITIONAL_NAME>
calcitriol

> <INCHI_IDENTIFIER>
InChI=1S/C27H44O3/c1-18(8-6-14-26(3,4)30)23-12-13-24-20(9-7-15-27(23,24)5)10-11-21-16-22(28)17-25(29)19(21)2/h10-11,18,22-25,28-30H,2,6-9,12-17H2,1,3-5H3/b20-10+,21-11-/t18-,22-,23-,24+,25+,27-/m1/s1

> <INCHI_KEY>
InChIKey=GMRQFYUYWCNGIN-NKMMMXOESA-N

> <SMILES>
C[C@H](CCCC(O)(C)C)[C@@]1([H])CC[C@@]2([H])\C(CCC[C@]12C)=C\C=C1\C[C@@H](O)C[C@H](O)C1=C

> <JCHEM_ACCEPTOR_COUNT>
3

> <JCHEM_DONOR_COUNT>
3

> <JCHEM_ACIDIC_PKA>
14.39

> <JCHEM_BASIC_PKA>
-1.3

> <JCHEM_PHYSIOLOGICAL_CHARGE>
0

> <ALOGPS_LOGP>
5.51

> <JCHEM_LOGP>
4.35

> <ALOGPS_LOGS>
-4.8

> <JCHEM_POLARIZABILITY>
51.37

> <JCHEM_POLAR_SURFACE_AREA>
60.69

> <JCHEM_REFRACTIVITY>
126.53

> <JCHEM_ROTATABLE_BOND_COUNT>
6

> <ALOGPS_SOLUBILITY>
6.67e-03 g/l __ 

$$$$
