
  Mrv0541 02231218072D          

 11 12  0  0  0  0            999 V2000
    3.0793    1.4002    0.0000 O   0  0  0  0  0  0  0  0  0  0  0  0
    1.6501   -1.0751    0.0000 O   0  0  0  0  0  0  0  0  0  0  0  0
    4.5744   -0.9140    0.0000 N   0  0  0  0  0  0  0  0  0  0  0  0
    5.0560   -0.2500    0.0000 N   0  0  0  0  0  0  0  0  0  0  0  0
    2.3647    0.1625    0.0000 N   0  0  0  0  0  0  0  0  0  0  0  0
    3.0793   -1.0751    0.0000 N   0  0  0  0  0  0  0  0  0  0  0  0
    3.7938    0.1625    0.0000 C   0  0  0  0  0  0  0  0  0  0  0  0
    3.7938   -0.6625    0.0000 C   0  0  0  0  0  0  0  0  0  0  0  0
    4.5744    0.4140    0.0000 C   0  0  0  0  0  0  0  0  0  0  0  0
    3.0793    0.5750    0.0000 C   0  0  0  0  0  0  0  0  0  0  0  0
    2.3647   -0.6625    0.0000 C   0  0  0  0  0  0  0  0  0  0  0  0
  1 10  2  0  0  0  0
  2 11  2  0  0  0  0
  3  4  1  0  0  0  0
  3  8  1  0  0  0  0
  4  9  1  0  0  0  0
  5 10  1  0  0  0  0
  5 11  1  0  0  0  0
  6  8  2  0  0  0  0
  6 11  1  0  0  0  0
  7  8  1  0  0  0  0
  7  9  2  0  0  0  0
  7 10  1  0  0  0  0
M  END
> <DRUGBANK_ID>
DB05262

> <DRUG_GROUPS>
investigational

> <GENERIC_NAME>
Oxypurinol

> <SYNONYMS>
1H-Pyrazolo[3,4-d]pyrimidine-4,6(5H,7H)-dione; Oxipurinolum; Oxoallopurinol

> <BRANDS>


> <CHEMICAL_FORMULA>
C5H4N4O2

> <MOLECULAR_WEIGHT>
152.1109

> <EXACT_MASS>
152.033425392

> <IUPAC_NAME>
1H,2H,4H,5H,6H-pyrazolo[3,4-d]pyrimidine-4,6-dione

> <IUPAC_TRADITIONAL_NAME>
oxypurinol

> <INCHI_IDENTIFIER>
InChI=1S/C5H4N4O2/c10-4-2-1-6-9-3(2)7-5(11)8-4/h1H,(H3,6,7,8,9,10,11)

> <INCHI_KEY>
InChIKey=HXNFUBHNUDHIGC-UHFFFAOYSA-N

> <SMILES>
O=C1NC(=O)C2=CNNC2=N1

> <JCHEM_ACCEPTOR_COUNT>
5

> <JCHEM_DONOR_COUNT>
3

> <JCHEM_ACIDIC_PKA>
7.19

> <JCHEM_BASIC_PKA>
-3.7

> <JCHEM_PHYSIOLOGICAL_CHARGE>
0

> <ALOGPS_LOGP>
-2

> <JCHEM_LOGP>
-1.7

> <ALOGPS_LOGS>
-1.8

> <JCHEM_POLARIZABILITY>
12.6

> <JCHEM_POLAR_SURFACE_AREA>
82.59

> <JCHEM_REFRACTIVITY>
55.35

> <JCHEM_ROTATABLE_BOND_COUNT>
0

> <ALOGPS_SOLUBILITY>
2.32e+00 g/l __ 

$$$$
