
  Mrv0541 02231218062D          

 36 33  0  0  0  0            999 V2000
    4.9205    5.8056    0.0000 P    0  0  0  0  0  0  0  0  0  0  0  0
    3.4916    4.1555    0.0000 P    0  0  0  0  0  0  0  0  0  0  0  0
    4.2060    7.0431    0.0000 Na   0  3  0  0  0  0  0  0  0  0  0  0
    2.2540    4.8701    0.0000 Na   0  3  0  0  0  0  0  0  0  0  0  0
    2.0625    4.1555    0.0000 Na   0  3  0  0  0  0  0  0  0  0  0  0
    6.1580    6.5201    0.0000 Na   0  3  0  0  0  0  0  0  0  0  0  0
    5.6350    5.3931    0.0000 O    0  0  0  0  0  0  0  0  0  0  0  0
    4.2060    4.5680    0.0000 O    0  0  0  0  0  0  0  0  0  0  0  0
    4.2060    2.9180    0.0000 O    0  0  0  0  0  0  0  0  0  0  0  0
    6.3495    1.6805    0.0000 O    0  0  0  0  0  0  0  0  0  0  0  0
    9.2075    1.6805    0.0000 O    0  0  0  0  0  0  0  0  0  0  0  0
    7.7784    0.8555    0.0000 O    0  0  0  0  0  0  0  0  0  0  0  0
    4.2060    6.2181    0.0000 O    0  5  0  0  0  0  0  0  0  0  0  0
    5.3330    6.5201    0.0000 O    0  5  0  0  0  0  0  0  0  0  0  0
    4.5080    5.0911    0.0000 O    0  0  0  0  0  0  0  0  0  0  0  0
    3.0791    4.8701    0.0000 O    0  5  0  0  0  0  0  0  0  0  0  0
    2.7770    3.7430    0.0000 O    0  5  0  0  0  0  0  0  0  0  0  0
    3.9041    3.4411    0.0000 O    0  0  0  0  0  0  0  0  0  0  0  0
    6.3495    4.1555    0.0000 C    0  0  0  0  0  0  0  0  0  0  0  0
    7.7784    3.3305    0.0000 C    0  0  0  0  0  0  0  0  0  0  0  0
    5.6350    4.5680    0.0000 C    0  0  0  0  0  0  0  0  0  0  0  0
    4.9205    4.1555    0.0000 C    0  0  0  0  0  0  0  0  0  0  0  0
    7.0640    4.5680    0.0000 C    0  0  0  0  0  0  0  0  0  0  0  0
    7.7784    4.1555    0.0000 C    0  0  0  0  0  0  0  0  0  0  0  0
    6.3495    3.3305    0.0000 C    0  0  0  0  0  0  0  0  0  0  0  0
    4.9205    3.3305    0.0000 C    0  0  0  0  0  0  0  0  0  0  0  0
    8.4929    2.9180    0.0000 C    0  0  0  0  0  0  0  0  0  0  0  0
    7.0640    2.9180    0.0000 C    0  0  0  0  0  0  0  0  0  0  0  0
    7.0640    2.0930    0.0000 C    0  0  0  0  0  0  0  0  0  0  0  0
    8.4929    2.0930    0.0000 C    0  0  0  0  0  0  0  0  0  0  0  0
    7.7784    1.6805    0.0000 C    0  0  0  0  0  0  0  0  0  0  0  0
    5.6350    2.9180    0.0000 C    0  0  0  0  0  0  0  0  0  0  0  0
    4.2060    2.0930    0.0000 C    0  0  0  0  0  0  0  0  0  0  0  0
    6.3495    0.8555    0.0000 C    0  0  0  0  0  0  0  0  0  0  0  0
    9.9219    2.0930    0.0000 C    0  0  0  0  0  0  0  0  0  0  0  0
    8.4929    0.4430    0.0000 C    0  0  0  0  0  0  0  0  0  0  0  0
  1  7  1  0  0  0  0
  1 13  1  0  0  0  0
  1 14  1  0  0  0  0
  1 15  2  0  0  0  0
  2  8  1  0  0  0  0
  2 16  1  0  0  0  0
  2 17  1  0  0  0  0
  2 18  2  0  0  0  0
  7 21  1  0  0  0  0
  8 22  1  0  0  0  0
  9 26  1  0  0  0  0
  9 33  1  0  0  0  0
 10 29  1  0  0  0  0
 10 34  1  0  0  0  0
 11 30  1  0  0  0  0
 11 35  1  0  0  0  0
 12 31  1  0  0  0  0
 12 36  1  0  0  0  0
 19 21  2  0  0  0  0
 19 23  1  0  0  0  0
 19 25  1  0  0  0  0
 20 24  1  0  0  0  0
 20 27  2  0  0  0  0
 20 28  1  0  0  0  0
 21 22  1  0  0  0  0
 22 26  2  0  0  0  0
 23 24  2  0  0  0  0
 25 32  2  0  0  0  0
 26 32  1  0  0  0  0
 27 30  1  0  0  0  0
 28 29  2  0  0  0  0
 29 31  1  0  0  0  0
 30 31  2  0  0  0  0
M  END
> <DRUGBANK_ID>
DB05143

> <DRUG_GROUPS>
investigational

> <GENERIC_NAME>
OXI4503

> <CHEMICAL_FORMULA>
C18H18Na4O12P2

> <MOLECULAR_WEIGHT>
580.2349

> <EXACT_MASS>
579.986427764

> <IUPAC_NAME>
tetrasodium 3-methoxy-2-(phosphonatooxy)-6-[(Z)-2-(3,4,5-trimethoxyphenyl)ethenyl]phenyl phosphate

> <IUPAC_TRADITIONAL_NAME>
tetrasodium 3-methoxy-2-(phosphonatooxy)-6-[(Z)-2-(3,4,5-trimethoxyphenyl)ethenyl]phenyl phosphate

> <INCHI_IDENTIFIER>
InChI=1S/C18H22O12P2.4Na/c1-25-13-8-7-12(16(29-31(19,20)21)18(13)30-32(22,23)24)6-5-11-9-14(26-2)17(28-4)15(10-11)27-3;;;;/h5-10H,1-4H3,(H2,19,20,21)(H2,22,23,24);;;;/q;4*+1/p-4/b6-5-;;;;

> <INCHI_KEY>
InChIKey=NRKFVEPAQNCYNJ-YGGCHVFLSA-J

> <SMILES>
[Na+].[Na+].[Na+].[Na+].COC1=CC(\C=C/C2=C(OP([O-])([O-])=O)C(OP([O-])([O-])=O)=C(OC)C=C2)=CC(OC)=C1OC

> <JCHEM_ACCEPTOR_COUNT>
10

> <JCHEM_DONOR_COUNT>
0

> <JCHEM_ACIDIC_PKA>
1.31

> <JCHEM_BASIC_PKA>
-4.3

> <JCHEM_PHYSIOLOGICAL_CHARGE>
-4

> <ALOGPS_LOGP>
2.89

> <JCHEM_LOGP>
1.77

> <ALOGPS_LOGS>
-2.5

> <JCHEM_POLARIZABILITY>
42.23

> <JCHEM_POLAR_SURFACE_AREA>
181.76

> <JCHEM_REFRACTIVITY>
108.59

> <JCHEM_ROTATABLE_BOND_COUNT>
10

> <ALOGPS_SOLUBILITY>
1.92e+00 g/l __ 

$$$$
