
  Mrv0541 02231218122D          

 41 45  0  0  0  0            999 V2000
    4.5080    3.1161    0.0000 O   0  0  0  0  0  0  0  0  0  0  0  0
    6.6316   -2.2666    0.0000 O   0  0  0  0  0  0  0  0  0  0  0  0
    4.5080    1.4661    0.0000 O   0  0  0  0  0  0  0  0  0  0  0  0
    8.0223   -5.5830    0.0000 O   0  0  0  0  0  0  0  0  0  0  0  0
    3.0791    5.5911    0.0000 N   0  0  0  0  0  0  0  0  0  0  0  0
    7.3795    0.6125    0.0000 N   0  0  0  0  0  0  0  0  0  0  0  0
    7.3603   -1.0375    0.0000 N   0  0  0  0  0  0  0  0  0  0  0  0
    8.1365    1.8614    0.0000 N   0  0  0  0  0  0  0  0  0  0  0  0
    8.0605   -2.2832    0.0000 N   0  0  0  0  0  0  0  0  0  0  0  0
    7.3889    3.1447    0.0000 N   0  0  0  0  0  0  0  0  0  0  0  0
    3.0791    6.4162    0.0000 C   0  0  0  0  0  0  0  0  0  0  0  0
    2.3645    5.1786    0.0000 C   0  0  0  0  0  0  0  0  0  0  0  0
    2.3645    6.8287    0.0000 C   0  0  0  0  0  0  0  0  0  0  0  0
    1.6500    5.5911    0.0000 C   0  0  0  0  0  0  0  0  0  0  0  0
    1.6500    6.4162    0.0000 C   0  0  0  0  0  0  0  0  0  0  0  0
    3.7935    5.1786    0.0000 C   0  0  0  0  0  0  0  0  0  0  0  0
    3.7935    4.3536    0.0000 C   0  0  0  0  0  0  0  0  0  0  0  0
    6.6602    0.2083    0.0000 C   0  0  0  0  0  0  0  0  0  0  0  0
    8.0891    0.1917    0.0000 C   0  0  0  0  0  0  0  0  0  0  0  0
    6.6506   -0.6167    0.0000 C   0  0  0  0  0  0  0  0  0  0  0  0
    8.0796   -0.6332    0.0000 C   0  0  0  0  0  0  0  0  0  0  0  0
    4.5080    3.9411    0.0000 C   0  0  0  0  0  0  0  0  0  0  0  0
    7.3889    1.4374    0.0000 C   0  0  0  0  0  0  0  0  0  0  0  0
    6.6515    1.8786    0.0000 C   0  0  0  0  0  0  0  0  0  0  0  0
    7.3508   -1.8624    0.0000 C   0  0  0  0  0  0  0  0  0  0  0  0
    6.6515    2.7036    0.0000 C   0  0  0  0  0  0  0  0  0  0  0  0
    5.2224    2.7036    0.0000 C   0  0  0  0  0  0  0  0  0  0  0  0
    5.9370    1.4661    0.0000 C   0  0  0  0  0  0  0  0  0  0  0  0
    5.9370    3.1161    0.0000 C   0  0  0  0  0  0  0  0  0  0  0  0
    5.2224    1.8786    0.0000 C   0  0  0  0  0  0  0  0  0  0  0  0
    8.1365    2.7207    0.0000 C   0  0  0  0  0  0  0  0  0  0  0  0
    8.0509   -3.1081    0.0000 C   0  0  0  0  0  0  0  0  0  0  0  0
    8.7606   -3.5289    0.0000 C   0  0  0  0  0  0  0  0  0  0  0  0
    7.3317   -3.5123    0.0000 C   0  0  0  0  0  0  0  0  0  0  0  0
    3.7935    1.8786    0.0000 C   0  0  0  0  0  0  0  0  0  0  0  0
    8.7511   -4.3538    0.0000 C   0  0  0  0  0  0  0  0  0  0  0  0
    7.3222   -4.3373    0.0000 C   0  0  0  0  0  0  0  0  0  0  0  0
    8.0319   -4.7580    0.0000 C   0  0  0  0  0  0  0  0  0  0  0  0
    8.7320   -6.0037    0.0000 C   0  0  0  0  0  0  0  0  0  0  0  0
    8.7224   -6.8287    0.0000 C   0  0  0  0  0  0  0  0  0  0  0  0
    9.4512   -5.5995    0.0000 C   0  0  0  0  0  0  0  0  0  0  0  0
  1 22  1  0  0  0  0
  1 27  1  0  0  0  0
  2 25  2  0  0  0  0
  3 30  1  0  0  0  0
  3 35  1  0  0  0  0
  4 38  1  0  0  0  0
  4 39  1  0  0  0  0
  5 11  1  0  0  0  0
  5 12  1  0  0  0  0
  5 16  1  0  0  0  0
  6 18  1  0  0  0  0
  6 19  1  0  0  0  0
  6 23  1  0  0  0  0
  7 20  1  0  0  0  0
  7 21  1  0  0  0  0
  7 25  1  0  0  0  0
  8 23  2  0  0  0  0
  8 31  1  0  0  0  0
  9 25  1  0  0  0  0
  9 32  1  0  0  0  0
 10 26  1  0  0  0  0
 10 31  2  0  0  0  0
 11 13  1  0  0  0  0
 12 14  1  0  0  0  0
 13 15  1  0  0  0  0
 14 15  1  0  0  0  0
 16 17  1  0  0  0  0
 17 22  1  0  0  0  0
 18 20  1  0  0  0  0
 19 21  1  0  0  0  0
 23 24  1  0  0  0  0
 24 26  1  0  0  0  0
 24 28  2  0  0  0  0
 26 29  2  0  0  0  0
 27 29  1  0  0  0  0
 27 30  2  0  0  0  0
 28 30  1  0  0  0  0
 32 33  2  0  0  0  0
 32 34  1  0  0  0  0
 33 36  1  0  0  0  0
 34 37  2  0  0  0  0
 36 38  2  0  0  0  0
 37 38  1  0  0  0  0
 39 40  1  0  0  0  0
 39 41  1  0  0  0  0
M  END
> <DRUGBANK_ID>
DB05465

> <DRUG_GROUPS>
investigational

> <GENERIC_NAME>
MLN-518

> <SYNONYMS>


> <BRANDS>


> <CHEMICAL_FORMULA>
C31H42N6O4

> <MOLECULAR_WEIGHT>
562.703

> <EXACT_MASS>
562.326753862

> <IUPAC_NAME>
4-{6-methoxy-7-[3-(piperidin-1-yl)propoxy]quinazolin-4-yl}-N-[4-(propan-2-yloxy)phenyl]piperazine-1-carboxamide

> <IUPAC_TRADITIONAL_NAME>
tandutinib

> <INCHI_IDENTIFIER>
InChI=1S/C31H42N6O4/c1-23(2)41-25-10-8-24(9-11-25)34-31(38)37-17-15-36(16-18-37)30-26-20-28(39-3)29(21-27(26)32-22-33-30)40-19-7-14-35-12-5-4-6-13-35/h8-11,20-23H,4-7,12-19H2,1-3H3,(H,34,38)

> <INCHI_KEY>
InChIKey=UXXQOJXBIDBUAC-UHFFFAOYSA-N

> <SMILES>
COC1=C(OCCCN2CCCCC2)C=C2N=CN=C(N3CCN(CC3)C(=O)NC3=CC=C(OC(C)C)C=C3)C2=C1

> <JCHEM_ACCEPTOR_COUNT>
8

> <JCHEM_DONOR_COUNT>
1

> <JCHEM_ACIDIC_PKA>
14.01

> <JCHEM_BASIC_PKA>
9.03

> <JCHEM_PHYSIOLOGICAL_CHARGE>
1

> <ALOGPS_LOGP>
4.52

> <JCHEM_LOGP>
4.34

> <ALOGPS_LOGS>
-3.9

> <JCHEM_POLARIZABILITY>
64.11

> <JCHEM_POLAR_SURFACE_AREA>
92.29

> <JCHEM_REFRACTIVITY>
162.58

> <JCHEM_ROTATABLE_BOND_COUNT>
10

> <ALOGPS_SOLUBILITY>
7.53e-02 g/l __ 

$$$$
