
  Mrv0541 02231218082D          

 22 22  0  0  0  0            999 V2000
    6.3799    0.8250    0.0000 O   0  0  0  0  0  0  0  0  0  0  0  0
    3.5220    4.1251    0.0000 O   0  0  0  0  0  0  0  0  0  0  0  0
    2.0930    3.3001    0.0000 O   0  0  0  0  0  0  0  0  0  0  0  0
    4.9509    0.8250    0.0000 N   0  0  0  0  0  0  0  0  0  0  0  0
    6.3799   -1.6500    0.0000 C   0  0  0  0  0  0  0  0  0  0  0  0
    6.3799   -0.8250    0.0000 C   0  0  0  0  0  0  0  0  0  0  0  0
    7.0944   -2.0625    0.0000 C   0  0  0  0  0  0  0  0  0  0  0  0
    5.6655   -0.4125    0.0000 C   0  0  0  0  0  0  0  0  0  0  0  0
    7.8089   -4.1251    0.0000 C   0  0  0  0  0  0  0  0  0  0  0  0
    7.0944   -2.8876    0.0000 C   0  0  0  0  0  0  0  0  0  0  0  0
    5.6655    0.4125    0.0000 C   0  0  0  0  0  0  0  0  0  0  0  0
    7.8089   -3.3001    0.0000 C   0  0  0  0  0  0  0  0  0  0  0  0
    4.9509    1.6500    0.0000 C   0  0  0  0  0  0  0  0  0  0  0  0
    4.2365    2.0625    0.0000 C   0  0  0  0  0  0  0  0  0  0  0  0
    8.5234   -4.5376    0.0000 C   0  0  0  0  0  0  0  0  0  0  0  0
    7.0944   -4.5376    0.0000 C   0  0  0  0  0  0  0  0  0  0  0  0
    4.2365    2.8876    0.0000 C   0  0  0  0  0  0  0  0  0  0  0  0
    3.5220    1.6500    0.0000 C   0  0  0  0  0  0  0  0  0  0  0  0
    3.5220    3.3001    0.0000 C   0  0  0  0  0  0  0  0  0  0  0  0
    2.8075    2.0625    0.0000 C   0  0  0  0  0  0  0  0  0  0  0  0
    2.8075    2.8876    0.0000 C   0  0  0  0  0  0  0  0  0  0  0  0
    4.2365    4.5376    0.0000 C   0  0  0  0  0  0  0  0  0  0  0  0
  1 11  2  0  0  0  0
  2 19  1  0  0  0  0
  2 22  1  0  0  0  0
  3 21  1  0  0  0  0
  4 11  1  0  0  0  0
  4 13  1  0  0  0  0
  5  6  1  0  0  0  0
  5  7  1  0  0  0  0
  6  8  1  0  0  0  0
  7 10  1  0  0  0  0
  8 11  1  0  0  0  0
  9 12  1  0  0  0  0
  9 15  1  0  0  0  0
  9 16  1  0  0  0  0
 10 12  2  0  0  0  0
 13 14  1  0  0  0  0
 14 17  2  0  0  0  0
 14 18  1  0  0  0  0
 17 19  1  0  0  0  0
 18 20  2  0  0  0  0
 19 21  2  0  0  0  0
 20 21  1  0  0  0  0
M  END
> <DRUGBANK_ID>
DB05318

> <DRUG_GROUPS>
investigational

> <GENERIC_NAME>
NGX-4010

> <BRANDS>


> <CHEMICAL_FORMULA>
C18H27NO3

> <MOLECULAR_WEIGHT>
305.4119

> <EXACT_MASS>
305.199093735

> <IUPAC_NAME>
(6E)-N-[(4-hydroxy-3-methoxyphenyl)methyl]-8-methylnon-6-enamide

> <IUPAC_TRADITIONAL_NAME>
capsaicin

> <INCHI_IDENTIFIER>
InChI=1S/C18H27NO3/c1-14(2)8-6-4-5-7-9-18(21)19-13-15-10-11-16(20)17(12-15)22-3/h6,8,10-12,14,20H,4-5,7,9,13H2,1-3H3,(H,19,21)/b8-6+

> <INCHI_KEY>
InChIKey=YKPUWZUDDOIDPM-SOFGYWHQSA-N

> <SMILES>
COC1=C(O)C=CC(CNC(=O)CCCC\C=C\C(C)C)=C1

> <JCHEM_ACCEPTOR_COUNT>
3

> <JCHEM_DONOR_COUNT>
2

> <JCHEM_ACIDIC_PKA>
9.93

> <JCHEM_BASIC_PKA>
-0.52

> <JCHEM_PHYSIOLOGICAL_CHARGE>
0

> <ALOGPS_LOGP>
3.8

> <JCHEM_LOGP>
3.75

> <ALOGPS_LOGS>
-4.6

> <JCHEM_POLARIZABILITY>
36.32

> <JCHEM_POLAR_SURFACE_AREA>
58.56

> <JCHEM_REFRACTIVITY>
90.32

> <JCHEM_ROTATABLE_BOND_COUNT>
9

> <ALOGPS_SOLUBILITY>
8.41e-03 g/l __ 

$$$$
