
  Mrv0541 02231218132D          

 17 16  0  0  1  0            999 V2000
    4.5080    2.2688    0.0000 Cl   0  0  0  0  0  0  0  0  0  0  0  0
    4.5080   -0.2063    0.0000 S    0  0  0  0  0  0  0  0  0  0  0  0
    2.3645    0.2063    0.0000 S    0  0  0  0  0  0  0  0  0  0  0  0
    4.9205    0.5082    0.0000 O    0  0  0  0  0  0  0  0  0  0  0  0
    4.0955   -0.9207    0.0000 O    0  0  0  0  0  0  0  0  0  0  0  0
    1.9520   -0.5082    0.0000 O    0  0  0  0  0  0  0  0  0  0  0  0
    2.7770    0.9207    0.0000 O    0  0  0  0  0  0  0  0  0  0  0  0
    3.7935   -1.4438    0.0000 O    0  0  0  0  0  0  0  0  0  0  0  0
    3.7935    0.2063    0.0000 N    0  0  0  0  0  0  0  0  0  0  0  0
    3.0791   -0.2063    0.0000 N    0  0  0  0  0  0  0  0  0  0  0  0
    2.3645   -1.4438    0.0000 N    0  0  0  0  0  0  0  0  0  0  0  0
    3.7935    1.0313    0.0000 C    0  0  0  0  0  0  0  0  0  0  0  0
    5.2224   -0.6188    0.0000 C    0  0  0  0  0  0  0  0  0  0  0  0
    4.5080    1.4438    0.0000 C    0  0  0  0  0  0  0  0  0  0  0  0
    3.0791   -1.0313    0.0000 C    0  0  0  0  0  0  0  0  0  0  0  0
    1.6500    0.6188    0.0000 C    0  0  0  0  0  0  0  0  0  0  0  0
    2.3645   -2.2688    0.0000 C    0  0  0  0  0  0  0  0  0  0  0  0
  1 14  1  0  0  0  0
  2  4  2  0  0  0  0
  2  5  2  0  0  0  0
  2  9  1  0  0  0  0
  2 13  1  0  0  0  0
  3  6  2  0  0  0  0
  3  7  2  0  0  0  0
  3 10  1  0  0  0  0
  3 16  1  0  0  0  0
  8 15  2  0  0  0  0
  9 10  1  0  0  0  0
  9 12  1  0  0  0  0
 10 15  1  0  0  0  0
 11 15  1  0  0  0  0
 11 17  1  0  0  0  0
 12 14  1  0  0  0  0
M  END
> <DRUGBANK_ID>
DB05817

> <DRUG_GROUPS>
investigational

> <GENERIC_NAME>
VNP 40101M

> <BRANDS>


> <CHEMICAL_FORMULA>
C6H14ClN3O5S2

> <MOLECULAR_WEIGHT>
307.775

> <EXACT_MASS>
307.00633966

> <IUPAC_NAME>
1-[N-(2-chloroethyl)methanesulfonamido]-1-methanesulfonyl-3-methylurea

> <IUPAC_TRADITIONAL_NAME>
1-[N-(2-chloroethyl)methanesulfonamido]-1-methanesulfonyl-3-methylurea

> <INCHI_IDENTIFIER>
InChI=1S/C6H14ClN3O5S2/c1-8-6(11)10(17(3,14)15)9(5-4-7)16(2,12)13/h4-5H2,1-3H3,(H,8,11)

> <INCHI_KEY>
InChIKey=PVCULFYROUOVGJ-UHFFFAOYSA-N

> <SMILES>
CNC(=O)N(N(CCCl)S(C)(=O)=O)S(C)(=O)=O

> <JCHEM_ACCEPTOR_COUNT>
5

> <JCHEM_DONOR_COUNT>
1

> <JCHEM_ACIDIC_PKA>
12.87

> <JCHEM_PHYSIOLOGICAL_CHARGE>
0

> <ALOGPS_LOGP>
-0.01

> <JCHEM_LOGP>
-1.9

> <ALOGPS_LOGS>
-2.6

> <JCHEM_POLARIZABILITY>
26.65

> <JCHEM_POLAR_SURFACE_AREA>
103.86

> <JCHEM_REFRACTIVITY>
61.91

> <JCHEM_ROTATABLE_BOND_COUNT>
3

> <ALOGPS_SOLUBILITY>
7.36e-01 g/l __ 

$$$$
