
  Mrv0541 02231218082D          

 26 30  0  0  1  0            999 V2000
    6.2164    1.2548    0.0000 O   0  0  0  0  0  0  0  0  0  0  0  0
    5.9177   -1.5876    0.0000 O   0  0  0  0  0  0  0  0  0  0  0  0
    4.4271    1.3358    0.0000 N   0  0  0  0  0  0  0  0  0  0  0  0
    3.6466    0.2615    0.0000 N   0  0  0  0  0  0  0  0  0  0  0  0
    4.7615   -0.7477    0.0000 N   0  0  0  0  0  0  0  0  0  0  0  0
    6.0671   -0.1664    0.0000 N   0  0  0  0  0  0  0  0  0  0  0  0
    2.9798    1.5667    0.0000 C   0  0  0  0  0  0  0  0  0  0  0  0
    2.3124    2.0516    0.0000 C   0  0  0  0  0  0  0  0  0  0  0  0
    1.9042    0.7880    0.0000 C   0  0  0  0  0  0  0  0  0  0  0  0
    3.3924    2.8363    0.0000 C   0  0  0  0  0  0  0  0  0  0  0  0
    2.7244    0.7873    0.0000 C   0  0  0  0  0  0  0  0  0  0  0  0
    3.6473    2.0516    0.0000 C   0  0  0  0  0  0  0  0  0  0  0  0
    1.6501    1.5678    0.0000 C   0  0  0  0  0  0  0  0  0  0  0  0
    2.5673    2.8363    0.0000 C   0  0  0  0  0  0  0  0  0  0  0  0
    2.0570    2.2417    0.0000 C   0  0  0  0  0  0  0  0  0  0  0  0
    3.6473    1.0817    0.0000 C   0  0  0  0  0  0  0  0  0  0  0  0
    4.9109    0.6736    0.0000 C   0  0  0  0  0  0  0  0  0  0  0  0
    4.4260    0.0061    0.0000 C   0  0  0  0  0  0  0  0  0  0  0  0
    5.7314    0.5874    0.0000 C   0  0  0  0  0  0  0  0  0  0  0  0
    5.5821   -0.8339    0.0000 C   0  0  0  0  0  0  0  0  0  0  0  0
    4.2766   -1.4151    0.0000 C   0  0  0  0  0  0  0  0  0  0  0  0
    6.8876   -0.2526    0.0000 C   0  0  0  0  0  0  0  0  0  0  0  0
    4.6122   -2.1688    0.0000 C   0  0  0  0  0  0  0  0  0  0  0  0
    7.2231   -1.0063    0.0000 C   0  0  0  0  0  0  0  0  0  0  0  0
    4.1272   -2.8363    0.0000 C   0  0  0  0  0  0  0  0  0  0  0  0
    8.0436   -1.0926    0.0000 C   0  0  0  0  0  0  0  0  0  0  0  0
  1 19  2  0  0  0  0
  2 20  2  0  0  0  0
  3 16  1  0  0  0  0
  3 17  1  0  0  0  0
  4 16  2  0  0  0  0
  4 18  1  0  0  0  0
  5 18  1  0  0  0  0
  5 20  1  0  0  0  0
  5 21  1  0  0  0  0
  6 19  1  0  0  0  0
  6 20  1  0  0  0  0
  6 22  1  0  0  0  0
  7  8  1  0  0  0  0
  7 11  1  0  0  0  0
  7 12  1  0  0  0  0
  7 16  1  0  0  0  0
  8 13  1  0  0  0  0
  8 14  1  0  0  0  0
  9 11  1  0  0  0  0
  9 13  1  0  0  0  0
  9 15  1  0  0  0  0
 10 12  1  0  0  0  0
 10 14  1  0  0  0  0
 10 15  1  0  0  0  0
 17 18  2  0  0  0  0
 17 19  1  0  0  0  0
 21 23  1  0  0  0  0
 22 24  1  0  0  0  0
 23 25  1  0  0  0  0
 24 26  1  0  0  0  0
M  END
> <DRUGBANK_ID>
DB05360

> <DRUG_GROUPS>
investigational

> <GENERIC_NAME>
KW-3902

> <CHEMICAL_FORMULA>
C20H28N4O2

> <MOLECULAR_WEIGHT>
356.4619

> <EXACT_MASS>
356.22122616

> <IUPAC_NAME>
1,3-dipropyl-8-{tricyclo[3.3.1.0^{3,7}]nonan-3-yl}-2,3,6,7-tetrahydro-1H-purine-2,6-dione

> <IUPAC_TRADITIONAL_NAME>
rolofylline

> <INCHI_IDENTIFIER>
InChI=1S/C20H28N4O2/c1-3-5-23-16-15(17(25)24(6-4-2)19(23)26)21-18(22-16)20-10-12-7-13(11-20)9-14(20)8-12/h12-14H,3-11H2,1-2H3,(H,21,22)

> <INCHI_KEY>
InChIKey=PJBFVWGQFLYWCB-UHFFFAOYSA-N

> <SMILES>
CCCN1C2=C(NC(=N2)C23CC4CC2CC(C3)C4)C(=O)N(CCC)C1=O

> <JCHEM_ACCEPTOR_COUNT>
3

> <JCHEM_DONOR_COUNT>
1

> <JCHEM_ACIDIC_PKA>
7.83

> <JCHEM_BASIC_PKA>
-0.72

> <JCHEM_PHYSIOLOGICAL_CHARGE>
0

> <ALOGPS_LOGP>
4.11

> <JCHEM_LOGP>
3.27

> <ALOGPS_LOGS>
-3.5

> <JCHEM_POLARIZABILITY>
40.67

> <JCHEM_POLAR_SURFACE_AREA>
69.3

> <JCHEM_REFRACTIVITY>
99.06

> <JCHEM_ROTATABLE_BOND_COUNT>
5

> <ALOGPS_SOLUBILITY>
1.25e-01 g/l __ 

$$$$
