
  Mrv0541 02231218112D          

 19 21  0  0  1  0            999 V2000
    5.2224   -1.0313    0.0000 O   0  0  0  0  0  0  0  0  0  0  0  0
    5.2224    1.4438    0.0000 N   0  0  0  0  0  0  0  0  0  0  0  0
    3.7935   -0.2063    0.0000 N   0  0  0  0  0  0  0  0  0  0  0  0
    4.5080   -1.4438    0.0000 N   0  0  0  0  0  0  0  0  0  0  0  0
    1.6500   -1.4438    0.0000 N   0  0  0  0  0  0  0  0  0  0  0  0
    5.9370    1.0313    0.0000 C   0  0  0  0  0  0  0  0  0  0  0  0
    5.2224    2.2688    0.0000 C   0  0  0  0  0  0  0  0  0  0  0  0
    6.6515    1.4438    0.0000 C   0  0  0  0  0  0  0  0  0  0  0  0
    5.9370    2.6813    0.0000 C   0  0  0  0  0  0  0  0  0  0  0  0
    6.6515    2.2688    0.0000 C   0  0  0  0  0  0  0  0  0  0  0  0
    4.5080    1.0313    0.0000 C   0  0  0  0  0  0  0  0  0  0  0  0
    4.5080    0.2063    0.0000 C   0  0  0  0  0  0  0  0  0  0  0  0
    5.2224   -0.2063    0.0000 C   0  0  0  0  0  0  0  0  0  0  0  0
    3.7935   -1.0313    0.0000 C   0  0  0  0  0  0  0  0  0  0  0  0
    3.0791   -1.4438    0.0000 C   0  0  0  0  0  0  0  0  0  0  0  0
    3.0791   -2.2688    0.0000 C   0  0  0  0  0  0  0  0  0  0  0  0
    2.3645   -1.0313    0.0000 C   0  0  0  0  0  0  0  0  0  0  0  0
    2.3645   -2.6813    0.0000 C   0  0  0  0  0  0  0  0  0  0  0  0
    1.6500   -2.2688    0.0000 C   0  0  0  0  0  0  0  0  0  0  0  0
  1  4  1  0  0  0  0
  1 13  1  0  0  0  0
  2  6  1  0  0  0  0
  2  7  1  0  0  0  0
  2 11  1  0  0  0  0
  3 12  1  0  0  0  0
  3 14  2  0  0  0  0
  4 14  1  0  0  0  0
  5 17  1  0  0  0  0
  5 19  2  0  0  0  0
  6  8  1  0  0  0  0
  7  9  1  0  0  0  0
  8 10  1  0  0  0  0
  9 10  1  0  0  0  0
 11 12  1  0  0  0  0
 12 13  1  0  0  0  0
 14 15  1  0  0  0  0
 15 16  1  0  0  0  0
 15 17  2  0  0  0  0
 16 18  2  0  0  0  0
 18 19  1  0  0  0  0
M  END
> <DRUGBANK_ID>
DB05444

> <DRUG_GROUPS>
investigational

> <GENERIC_NAME>
BRX-235

> <SYNONYMS>


> <CHEMICAL_FORMULA>
C14H20N4O

> <MOLECULAR_WEIGHT>
260.3348

> <EXACT_MASS>
260.163711282

> <IUPAC_NAME>
5-(piperidin-1-ylmethyl)-3-(pyridin-3-yl)-5,6-dihydro-2H-1,2,4-oxadiazine

> <IUPAC_TRADITIONAL_NAME>
5-(piperidin-1-ylmethyl)-3-(pyridin-3-yl)-5,6-dihydro-2H-1,2,4-oxadiazine

> <INCHI_IDENTIFIER>
InChI=1S/C14H20N4O/c1-2-7-18(8-3-1)10-13-11-19-17-14(16-13)12-5-4-6-15-9-12/h4-6,9,13H,1-3,7-8,10-11H2,(H,16,17)

> <INCHI_KEY>
InChIKey=QWVRTSZDKPRPDF-UHFFFAOYSA-N

> <SMILES>
C(C1CONC(=N1)C1=CN=CC=C1)N1CCCCC1

> <JCHEM_ACCEPTOR_COUNT>
5

> <JCHEM_DONOR_COUNT>
1

> <JCHEM_ACIDIC_PKA>
18.8

> <JCHEM_BASIC_PKA>
8.68

> <JCHEM_PHYSIOLOGICAL_CHARGE>
1

> <ALOGPS_LOGP>
1.31

> <JCHEM_LOGP>
1.1

> <ALOGPS_LOGS>
-2.5

> <JCHEM_POLARIZABILITY>
28.6

> <JCHEM_POLAR_SURFACE_AREA>
49.75

> <JCHEM_REFRACTIVITY>
84.66

> <JCHEM_ROTATABLE_BOND_COUNT>
3

> <ALOGPS_SOLUBILITY>
9.08e-01 g/l __ 

$$$$
