
  Mrv0541 02231218132D          

 18 17  0  0  0  0            999 V2000
    7.8082    0.2063    0.0000 S   0  0  0  0  0  0  0  0  0  0  0  0
    7.0938   -0.2063    0.0000 S   0  0  0  0  0  0  0  0  0  0  0  0
   10.6658    1.0312    0.0000 O   0  0  0  0  0  0  0  0  0  0  0  0
    4.2361   -1.0312    0.0000 O   0  0  0  0  0  0  0  0  0  0  0  0
    9.9515   -0.2063    0.0000 N   0  0  0  0  0  0  0  0  0  0  0  0
    4.9504    0.2063    0.0000 N   0  0  0  0  0  0  0  0  0  0  0  0
   12.8091   -0.2063    0.0000 N   0  0  0  0  0  0  0  0  0  0  0  0
    2.0928    0.2063    0.0000 N   0  0  0  0  0  0  0  0  0  0  0  0
    9.2371    0.2063    0.0000 C   0  0  0  0  0  0  0  0  0  0  0  0
    5.6650   -0.2063    0.0000 C   0  0  0  0  0  0  0  0  0  0  0  0
   11.3804   -0.2063    0.0000 C   0  0  0  0  0  0  0  0  0  0  0  0
    3.5217    0.2063    0.0000 C   0  0  0  0  0  0  0  0  0  0  0  0
    8.5226   -0.2063    0.0000 C   0  0  0  0  0  0  0  0  0  0  0  0
    6.3793    0.2063    0.0000 C   0  0  0  0  0  0  0  0  0  0  0  0
   10.6658    0.2063    0.0000 C   0  0  0  0  0  0  0  0  0  0  0  0
    4.2361   -0.2063    0.0000 C   0  0  0  0  0  0  0  0  0  0  0  0
   12.0947    0.2063    0.0000 C   0  0  0  0  0  0  0  0  0  0  0  0
    2.8072   -0.2063    0.0000 C   0  0  0  0  0  0  0  0  0  0  0  0
  1  2  1  0  0  0  0
  1 13  1  0  0  0  0
  2 14  1  0  0  0  0
  3 15  2  0  0  0  0
  4 16  2  0  0  0  0
  5  9  1  0  0  0  0
  5 15  1  0  0  0  0
  6 10  1  0  0  0  0
  6 16  1  0  0  0  0
  7 17  1  0  0  0  0
  8 18  1  0  0  0  0
  9 13  1  0  0  0  0
 10 14  1  0  0  0  0
 11 15  1  0  0  0  0
 11 17  1  0  0  0  0
 12 16  1  0  0  0  0
 12 18  1  0  0  0  0
M  END
> <DRUGBANK_ID>
DB05800

> <DRUG_GROUPS>
investigational

> <GENERIC_NAME>
beta alethine

> <BRANDS>


> <CHEMICAL_FORMULA>
C10H22N4O2S2

> <MOLECULAR_WEIGHT>
294.437

> <EXACT_MASS>
294.118417348

> <IUPAC_NAME>
3-amino-N-(2-{[2-(3-aminopropanamido)ethyl]disulfanyl}ethyl)propanamide

> <IUPAC_TRADITIONAL_NAME>
alethine

> <INCHI_IDENTIFIER>
InChI=1S/C10H22N4O2S2/c11-3-1-9(15)13-5-7-17-18-8-6-14-10(16)2-4-12/h1-8,11-12H2,(H,13,15)(H,14,16)

> <INCHI_KEY>
InChIKey=WELIVEBWRWAGOM-UHFFFAOYSA-N

> <SMILES>
NCCC(=O)NCCSSCCNC(=O)CCN

> <JCHEM_ACCEPTOR_COUNT>
4

> <JCHEM_DONOR_COUNT>
4

> <JCHEM_ACIDIC_PKA>
15.3

> <JCHEM_BASIC_PKA>
9.43

> <JCHEM_PHYSIOLOGICAL_CHARGE>
2

> <ALOGPS_LOGP>
-0.77

> <JCHEM_LOGP>
-2.5

> <ALOGPS_LOGS>
-2.2

> <JCHEM_POLARIZABILITY>
32.71

> <JCHEM_POLAR_SURFACE_AREA>
110.24

> <JCHEM_REFRACTIVITY>
78.22

> <JCHEM_ROTATABLE_BOND_COUNT>
11

> <ALOGPS_SOLUBILITY>
1.64e+00 g/l __ 

$$$$
