
  Mrv0541 02231218142D          

 13 14  0  0  0  0            999 V2000
    2.8075   -1.2518    0.0000 O   0  0  0  0  0  0  0  0  0  0  0  0
    4.2364    1.2232    0.0000 N   0  0  0  0  0  0  0  0  0  0  0  0
    2.0929   -0.0143    0.0000 N   0  0  0  0  0  0  0  0  0  0  0  0
    4.9508   -0.0143    0.0000 C   0  0  0  0  0  0  0  0  0  0  0  0
    4.9508    0.8107    0.0000 C   0  0  0  0  0  0  0  0  0  0  0  0
    4.2364   -0.4268    0.0000 C   0  0  0  0  0  0  0  0  0  0  0  0
    3.5219   -0.0143    0.0000 C   0  0  0  0  0  0  0  0  0  0  0  0
    5.6884   -0.4554    0.0000 C   0  0  0  0  0  0  0  0  0  0  0  0
    5.6884    1.2518    0.0000 C   0  0  0  0  0  0  0  0  0  0  0  0
    3.5219    0.8107    0.0000 C   0  0  0  0  0  0  0  0  0  0  0  0
    6.4358   -0.0314    0.0000 C   0  0  0  0  0  0  0  0  0  0  0  0
    6.4358    0.8279    0.0000 C   0  0  0  0  0  0  0  0  0  0  0  0
    2.8075   -0.4268    0.0000 C   0  0  0  0  0  0  0  0  0  0  0  0
  1 13  2  0  0  0  0
  2  5  1  0  0  0  0
  2 10  2  0  0  0  0
  3 13  1  0  0  0  0
  4  5  1  0  0  0  0
  4  6  1  0  0  0  0
  4  8  2  0  0  0  0
  5  9  2  0  0  0  0
  6  7  2  0  0  0  0
  7 10  1  0  0  0  0
  7 13  1  0  0  0  0
  8 11  1  0  0  0  0
  9 12  1  0  0  0  0
 11 12  2  0  0  0  0
M  END
> <DRUGBANK_ID>
DB05861

> <DRUG_GROUPS>
investigational

> <GENERIC_NAME>
TASQ

> <SYNONYMS>


> <CHEMICAL_FORMULA>
C10H8N2O

> <MOLECULAR_WEIGHT>
172.1833

> <EXACT_MASS>
172.063662888

> <IUPAC_NAME>
quinoline-3-carboxamide

> <IUPAC_TRADITIONAL_NAME>
3-quinolinecarboxamide

> <INCHI_IDENTIFIER>
InChI=1S/C10H8N2O/c11-10(13)8-5-7-3-1-2-4-9(7)12-6-8/h1-6H,(H2,11,13)

> <INCHI_KEY>
InChIKey=BLTDCIWCFCUQCB-UHFFFAOYSA-N

> <SMILES>
NC(=O)C1=CC2=CC=CC=C2N=C1

> <JCHEM_ACCEPTOR_COUNT>
2

> <JCHEM_DONOR_COUNT>
1

> <JCHEM_ACIDIC_PKA>
13.81

> <JCHEM_BASIC_PKA>
3.04

> <JCHEM_PHYSIOLOGICAL_CHARGE>
0

> <ALOGPS_LOGP>
1.25

> <JCHEM_LOGP>
0.98

> <ALOGPS_LOGS>
-2

> <JCHEM_POLARIZABILITY>
17.64

> <JCHEM_POLAR_SURFACE_AREA>
55.98

> <JCHEM_REFRACTIVITY>
49.06

> <JCHEM_ROTATABLE_BOND_COUNT>
1

> <ALOGPS_SOLUBILITY>
1.78e+00 g/l __ 

$$$$
