
  Mrv0541 02231218072D          

 22 23  0  0  1  0            999 V2000
    0.7145    6.7661    0.0000 N    0  0  0  0  0  0  0  0  0  0  0  0
    0.7145    5.9411    0.0000 C    0  0  0  0  0  0  0  0  0  0  0  0
    1.4289    5.5286    0.0000 N    0  0  0  0  0  0  0  0  0  0  0  0
    1.4289    4.7036    0.0000 C    0  0  0  0  0  0  0  0  0  0  0  0
    2.1434    4.2911    0.0000 O    0  0  0  0  0  0  0  0  0  0  0  0
    0.7145    4.2911    0.0000 N    0  0  0  0  0  0  0  0  0  0  0  0
    0.0000    4.7036    0.0000 C    0  0  0  0  0  0  0  0  0  0  0  0
    0.0000    5.5286    0.0000 C    0  0  0  0  0  0  0  0  0  0  0  0
   -0.7145    5.9411    0.0000 Br   0  0  0  0  0  0  0  0  0  0  0  0
    0.7145    3.4661    0.0000 C    0  0  2  0  0  0  0  0  0  0  0  0
    1.3819    2.9812    0.0000 O    0  0  0  0  0  0  0  0  0  0  0  0
    1.1270    2.1965    0.0000 C    0  0  2  0  0  0  0  0  0  0  0  0
    1.6119    1.5291    0.0000 C    0  0  0  0  0  0  0  0  0  0  0  0
    1.2763    0.7754    0.0000 O    0  0  0  0  0  0  0  0  0  0  0  0
    1.7613    0.1080    0.0000 P    0  0  0  0  0  0  0  0  0  0  0  0
    2.2462   -0.5595    0.0000 O    0  0  0  0  0  0  0  0  0  0  0  0
    1.0938   -0.3769    0.0000 O    0  0  0  0  0  0  0  0  0  0  0  0
    2.4287    0.5929    0.0000 O    0  0  0  0  0  0  0  0  0  0  0  0
    0.3020    2.1965    0.0000 C    0  0  1  0  0  0  0  0  0  0  0  0
   -0.1830    1.5291    0.0000 O    0  0  0  0  0  0  0  0  0  0  0  0
    0.0470    2.9812    0.0000 C    0  0  2  0  0  0  0  0  0  0  0  0
   -0.7376    3.2361    0.0000 O    0  0  0  0  0  0  0  0  0  0  0  0
  1  2  1  0  0  0  0
  2  3  2  0  0  0  0
  3  4  1  0  0  0  0
  4  5  2  0  0  0  0
  4  6  1  0  0  0  0
  6  7  1  0  0  0  0
  7  8  2  0  0  0  0
  2  8  1  0  0  0  0
  8  9  1  0  0  0  0
 10  6  1  6  0  0  0
 10 11  1  0  0  0  0
 11 12  1  0  0  0  0
 12 13  1  6  0  0  0
 13 14  1  0  0  0  0
 14 15  1  0  0  0  0
 15 16  1  0  0  0  0
 15 17  1  0  0  0  0
 15 18  2  0  0  0  0
 12 19  1  0  0  0  0
 19 20  1  1  0  0  0
 19 21  1  0  0  0  0
 10 21  1  0  0  0  0
 21 22  1  6  0  0  0
M  END
> <DRUGBANK_ID>
DB05248

> <DRUG_GROUPS>
experimental

> <GENERIC_NAME>
5-bromo-cytidinemonophosphate

> <SYNONYMS>


> <CHEMICAL_FORMULA>
C9H13BrN3O8P

> <MOLECULAR_WEIGHT>
402.093

> <EXACT_MASS>
400.962363566

> <IUPAC_NAME>
{[(2R,3S,4S,5R)-5-(4-amino-5-bromo-2-oxo-1,2-dihydropyrimidin-1-yl)-3,4-dihydroxyoxolan-2-yl]methoxy}phosphonic acid

> <IUPAC_TRADITIONAL_NAME>
[(2R,3S,4S,5R)-5-(4-amino-5-bromo-2-oxopyrimidin-1-yl)-3,4-dihydroxyoxolan-2-yl]methoxyphosphonic acid

> <INCHI_IDENTIFIER>
InChI=1S/C9H13BrN3O8P/c10-3-1-13(9(16)12-7(3)11)8-6(15)5(14)4(21-8)2-20-22(17,18)19/h1,4-6,8,14-15H,2H2,(H2,11,12,16)(H2,17,18,19)/t4-,5-,6+,8-/m1/s1

> <INCHI_KEY>
InChIKey=KOHPTSGPCYTYFB-MNCSTQPFSA-N

> <SMILES>
NC1=NC(=O)N(C=C1Br)[C@@H]1O[C@H](COP(O)(O)=O)[C@@H](O)[C@@H]1O

> <JCHEM_ACCEPTOR_COUNT>
9

> <JCHEM_DONOR_COUNT>
5

> <JCHEM_ACIDIC_PKA>
1.23

> <JCHEM_BASIC_PKA>
-3.3

> <JCHEM_PHYSIOLOGICAL_CHARGE>
-2

> <ALOGPS_LOGP>
-1.4

> <JCHEM_LOGP>
-2.1

> <ALOGPS_LOGS>
-1.5

> <JCHEM_POLARIZABILITY>
30.14

> <JCHEM_POLAR_SURFACE_AREA>
175.14

> <JCHEM_REFRACTIVITY>
73.03

> <JCHEM_ROTATABLE_BOND_COUNT>
4

> <ALOGPS_SOLUBILITY>
1.27e+01 g/l __ 

$$$$
