
  Mrv0541 02231218072D          

 37 39  0  0  1  0            999 V2000
    8.3714    6.0645    0.0000 O   0  0  0  0  0  0  0  0  0  0  0  0
    3.5220   -3.4392    0.0000 O   0  0  0  0  0  0  0  0  0  0  0  0
    2.0930   -2.6142    0.0000 O   0  0  0  0  0  0  0  0  0  0  0  0
    4.9509   -2.6142    0.0000 O   0  0  0  0  0  0  0  0  0  0  0  0
    2.0930   -5.9142    0.0000 O   0  0  0  0  0  0  0  0  0  0  0  0
    4.9509    2.3360    0.0000 C   0  0  2  0  0  0  0  0  0  0  0  0
    5.7316    2.5874    0.0000 C   0  0  2  0  0  0  0  0  0  0  0  0
    4.9509    1.5109    0.0000 C   0  0  1  0  0  0  0  0  0  0  0  0
    6.2131    1.9234    0.0000 C   0  0  0  0  0  0  0  0  0  0  0  0
    5.7316    1.2596    0.0000 C   0  0  0  0  0  0  0  0  0  0  0  0
    4.2365    2.7485    0.0000 C   0  0  0  0  0  0  0  0  0  0  0  0
    5.9879    3.3716    0.0000 C   0  0  1  0  0  0  0  0  0  0  0  0
    4.2365    1.0984    0.0000 C   0  0  0  0  0  0  0  0  0  0  0  0
    4.9509    3.1610    0.0000 C   0  0  0  0  0  0  0  0  0  0  0  0
    3.5220    2.3360    0.0000 C   0  0  0  0  0  0  0  0  0  0  0  0
    3.5220    1.5109    0.0000 C   0  0  0  0  0  0  0  0  0  0  0  0
    6.7952    3.5417    0.0000 C   0  0  0  0  0  0  0  0  0  0  0  0
    5.4370    3.9857    0.0000 C   0  0  0  0  0  0  0  0  0  0  0  0
    4.2365    0.2734    0.0000 C   0  0  0  0  0  0  0  0  0  0  0  0
    7.0515    4.3259    0.0000 C   0  0  0  0  0  0  0  0  0  0  0  0
    7.8588    4.4961    0.0000 C   0  0  0  0  0  0  0  0  0  0  0  0
    3.5220   -0.1391    0.0000 C   0  0  0  0  0  0  0  0  0  0  0  0
    8.1151    5.2803    0.0000 C   0  0  0  0  0  0  0  0  0  0  0  0
    3.5220   -0.9641    0.0000 C   0  0  0  0  0  0  0  0  0  0  0  0
    2.8075   -1.3766    0.0000 C   0  0  0  0  0  0  0  0  0  0  0  0
    7.3309    5.5365    0.0000 C   0  0  0  0  0  0  0  0  0  0  0  0
    8.8993    5.0239    0.0000 C   0  0  0  0  0  0  0  0  0  0  0  0
    4.2365   -1.3766    0.0000 C   0  0  0  0  0  0  0  0  0  0  0  0
    2.8075   -2.2016    0.0000 C   0  0  1  0  0  0  0  0  0  0  0  0
    4.2365   -2.2016    0.0000 C   0  0  1  0  0  0  0  0  0  0  0  0
    3.5220   -2.6142    0.0000 C   0  0  1  0  0  0  0  0  0  0  0  0
    4.9509   -0.9641    0.0000 C   0  0  0  0  0  0  0  0  0  0  0  0
    2.8075   -3.8517    0.0000 C   0  0  0  0  0  0  0  0  0  0  0  0
    2.8075   -4.6767    0.0000 C   0  0  0  0  0  0  0  0  0  0  0  0
    2.0930   -5.0892    0.0000 C   0  0  0  0  0  0  0  0  0  0  0  0
    6.3837    2.6898    0.0000 H   0  0  0  0  0  0  0  0  0  0  0  0
    5.0208    0.8546    0.0000 H   0  0  0  0  0  0  0  0  0  0  0  0
  1 23  1  0  0  0  0
 31  2  1  1  0  0  0
  2 33  1  0  0  0  0
 29  3  1  1  0  0  0
 30  4  1  6  0  0  0
  5 35  1  0  0  0  0
  6  7  1  0  0  0  0
  6  8  1  0  0  0  0
  6 11  1  0  0  0  0
  6 14  1  1  0  0  0
  7  9  1  0  0  0  0
  7 12  1  0  0  0  0
  7 36  1  6  0  0  0
  8 10  1  0  0  0  0
  8 13  1  0  0  0  0
  8 37  1  6  0  0  0
  9 10  1  0  0  0  0
 11 15  1  0  0  0  0
 12 17  1  0  0  0  0
 12 18  1  6  0  0  0
 13 16  1  0  0  0  0
 13 19  2  0  0  0  0
 15 16  1  0  0  0  0
 17 20  1  0  0  0  0
 19 22  1  0  0  0  0
 20 21  1  0  0  0  0
 21 23  1  0  0  0  0
 22 24  2  0  0  0  0
 23 26  1  0  0  0  0
 23 27  1  0  0  0  0
 24 25  1  0  0  0  0
 24 28  1  0  0  0  0
 25 29  1  0  0  0  0
 28 30  1  0  0  0  0
 28 32  2  0  0  0  0
 29 31  1  0  0  0  0
 30 31  1  0  0  0  0
 33 34  1  0  0  0  0
 34 35  1  0  0  0  0
M  END
> <DRUGBANK_ID>
DB05295

> <DRUG_GROUPS>
investigational

> <GENERIC_NAME>
ED-71

> <CHEMICAL_FORMULA>
C30H50O5

> <MOLECULAR_WEIGHT>
490.715

> <EXACT_MASS>
490.36582471

> <IUPAC_NAME>
(1S,2S,3S,5Z)-5-{2-[(1R,3aS,4E,7aR)-1-[(2R)-6-hydroxy-6-methylheptan-2-yl]-7a-methyl-octahydro-1H-inden-4-ylidene]ethylidene}-2-(3-hydroxypropoxy)-4-methylidenecyclohexane-1,3-diol

> <IUPAC_TRADITIONAL_NAME>
(1S,2S,3S,5Z)-5-{2-[(1R,3aS,4E,7aR)-1-[(2R)-6-hydroxy-6-methylheptan-2-yl]-7a-methyl-hexahydro-1H-inden-4-ylidene]ethylidene}-2-(3-hydroxypropoxy)-4-methylidenecyclohexane-1,3-diol

> <INCHI_IDENTIFIER>
InChI=1S/C30H50O5/c1-20(9-6-15-29(3,4)34)24-13-14-25-22(10-7-16-30(24,25)5)11-12-23-19-26(32)28(27(33)21(23)2)35-18-8-17-31/h11-12,20,24-28,31-34H,2,6-10,13-19H2,1,3-5H3/b22-11+,23-12-/t20-,24-,25+,26+,27+,28+,30-/m1/s1

> <INCHI_KEY>
InChIKey=FZEXGDDBXLBRTD-SJSKTVLPSA-N

> <SMILES>
OCCCO[C@H]1[C@@H](O)C\C(=C\C=C2/CCC[C@]3(C)[C@]([H])(CC[C@@]23[H])[C@H](C)CCCC(O)(C)C)C(=C)[C@@H]1O

> <JCHEM_ACCEPTOR_COUNT>
5

> <JCHEM_DONOR_COUNT>
4

> <JCHEM_ACIDIC_PKA>
13.38

> <JCHEM_BASIC_PKA>
-1.3

> <JCHEM_PHYSIOLOGICAL_CHARGE>
0

> <ALOGPS_LOGP>
5.04

> <JCHEM_LOGP>
3.67

> <ALOGPS_LOGS>
-4.7

> <JCHEM_POLARIZABILITY>
59.47

> <JCHEM_POLAR_SURFACE_AREA>
90.15

> <JCHEM_REFRACTIVITY>
143.54

> <JCHEM_ROTATABLE_BOND_COUNT>
10

> <ALOGPS_SOLUBILITY>
1.05e-02 g/l __ 

$$$$
