
  Mrv0541 02231218142D          

 21 24  0  0  1  0            999 V2000
    7.1353    1.7429    0.0000 O   0  0  0  0  0  0  0  0  0  0  0  0
    1.6498   -1.8105    0.0000 O   0  0  0  0  0  0  0  0  0  0  0  0
    6.0985   -0.1176    0.0000 C   0  0  0  0  0  0  0  0  0  0  0  0
    6.0985    0.7073    0.0000 C   0  0  0  0  0  0  0  0  0  0  0  0
    5.3842   -0.5300    0.0000 C   0  0  0  0  0  0  0  0  0  0  0  0
    4.6697   -0.1176    0.0000 C   0  0  0  0  0  0  0  0  0  0  0  0
    5.3842    1.1197    0.0000 C   0  0  0  0  0  0  0  0  0  0  0  0
    4.6697    0.7073    0.0000 C   0  0  0  0  0  0  0  0  0  0  0  0
    6.8790    0.9588    0.0000 C   0  0  0  0  0  0  0  0  0  0  0  0
    5.3974   -1.3891    0.0000 C   0  0  1  0  0  0  0  0  0  0  0  0
    6.8790   -0.3689    0.0000 C   0  0  0  0  0  0  0  0  0  0  0  0
    3.9191   -0.5356    0.0000 C   0  0  0  0  0  0  0  0  0  0  0  0
    7.3604    0.2949    0.0000 C   0  0  0  0  0  0  0  0  0  0  0  0
    4.6566   -1.8245    0.0000 C   0  0  0  0  0  0  0  0  0  0  0  0
    6.0985    1.5322    0.0000 C   0  0  0  0  0  0  0  0  0  0  0  0
    3.9125   -1.3948    0.0000 C   0  0  0  0  0  0  0  0  0  0  0  0
    3.1546   -0.0703    0.0000 C   0  0  0  0  0  0  0  0  0  0  0  0
    6.1165   -1.7933    0.0000 C   0  0  0  0  0  0  0  0  0  0  0  0
    2.3726   -0.5058    0.0000 C   0  0  0  0  0  0  0  0  0  0  0  0
    3.1409   -1.8482    0.0000 C   0  0  0  0  0  0  0  0  0  0  0  0
    2.3658   -1.4007    0.0000 C   0  0  0  0  0  0  0  0  0  0  0  0
  1  9  1  0  0  0  0
  2 21  2  0  0  0  0
  3  4  1  0  0  0  0
  3  5  1  0  0  0  0
  3 11  1  0  0  0  0
  4  7  1  0  0  0  0
  4  9  1  0  0  0  0
  4 15  1  0  0  0  0
  5  6  1  0  0  0  0
  5 10  1  0  0  0  0
  6  8  1  0  0  0  0
  6 12  1  0  0  0  0
  7  8  1  0  0  0  0
  9 13  1  0  0  0  0
 10 14  1  0  0  0  0
 10 18  1  6  0  0  0
 11 13  1  0  0  0  0
 12 16  1  0  0  0  0
 12 17  1  0  0  0  0
 14 16  1  0  0  0  0
 16 20  2  0  0  0  0
 17 19  1  0  0  0  0
 19 21  1  0  0  0  0
 20 21  1  0  0  0  0
M  END
> <DRUGBANK_ID>
DB05830

> <DRUG_GROUPS>
investigational

> <GENERIC_NAME>
7a-methyl-19-nortestosterone

> <BRANDS>


> <CHEMICAL_FORMULA>
C19H28O2

> <MOLECULAR_WEIGHT>
288.4244

> <EXACT_MASS>
288.20893014

> <IUPAC_NAME>
(9R)-14-hydroxy-9,15-dimethyltetracyclo[8.7.0.0^{2,7}.0^{11,15}]heptadec-6-en-5-one

> <IUPAC_TRADITIONAL_NAME>
(9R)-14-hydroxy-9,15-dimethyltetracyclo[8.7.0.0^{2,7}.0^{11,15}]heptadec-6-en-5-one

> <INCHI_IDENTIFIER>
InChI=1S/C19H28O2/c1-11-9-12-10-13(20)3-4-14(12)15-7-8-19(2)16(18(11)15)5-6-17(19)21/h10-11,14-18,21H,3-9H2,1-2H3/t11-,14?,15?,16?,17?,18?,19?/m1/s1

> <INCHI_KEY>
InChIKey=YSGQGNQWBLYHPE-BRIGUCEYSA-N

> <SMILES>
C[C@@H]1CC2=CC(=O)CCC2C2CCC3(C)C(O)CCC3C12

> <JCHEM_ACCEPTOR_COUNT>
2

> <JCHEM_DONOR_COUNT>
1

> <JCHEM_ACIDIC_PKA>
19.38

> <JCHEM_BASIC_PKA>
-0.88

> <JCHEM_PHYSIOLOGICAL_CHARGE>
0

> <ALOGPS_LOGP>
2.65

> <JCHEM_LOGP>
3.35

> <ALOGPS_LOGS>
-3.9

> <JCHEM_POLARIZABILITY>
33.93

> <JCHEM_POLAR_SURFACE_AREA>
37.3

> <JCHEM_REFRACTIVITY>
84.5

> <JCHEM_ROTATABLE_BOND_COUNT>
0

> <ALOGPS_SOLUBILITY>
3.91e-02 g/l __ 

$$$$
