
  Mrv0541 02231218092D          

 42 43  0  0  0  0            999 V2000
    5.2224   -1.4673    0.0000 S   0  0  0  0  0  0  0  0  0  0  0  0
    3.7935   -2.2923    0.0000 S   0  0  0  0  0  0  0  0  0  0  0  0
    5.2224    1.8328    0.0000 O   0  0  0  0  0  0  0  0  0  0  0  0
    3.7935   -5.5924    0.0000 O   0  0  0  0  0  0  0  0  0  0  0  0
    6.4600    2.5472    0.0000 O   0  0  0  0  0  0  0  0  0  0  0  0
    5.6350    5.4052    0.0000 O   0  0  0  0  0  0  0  0  0  0  0  0
    4.3974    4.6907    0.0000 O   0  0  0  0  0  0  0  0  0  0  0  0
    3.7935    1.0078    0.0000 C   0  0  0  0  0  0  0  0  0  0  0  0
    6.7620    0.5953    0.0000 C   0  0  0  0  0  0  0  0  0  0  0  0
    5.2224   -4.7674    0.0000 C   0  0  0  0  0  0  0  0  0  0  0  0
    2.3645   -4.7674    0.0000 C   0  0  0  0  0  0  0  0  0  0  0  0
    4.5080    0.5953    0.0000 C   0  0  0  0  0  0  0  0  0  0  0  0
    5.9370    0.5953    0.0000 C   0  0  0  0  0  0  0  0  0  0  0  0
    4.5080   -4.3549    0.0000 C   0  0  0  0  0  0  0  0  0  0  0  0
    3.0791   -4.3549    0.0000 C   0  0  0  0  0  0  0  0  0  0  0  0
    5.2224    1.0078    0.0000 C   0  0  0  0  0  0  0  0  0  0  0  0
    3.7935   -4.7674    0.0000 C   0  0  0  0  0  0  0  0  0  0  0  0
    4.5080   -0.2298    0.0000 C   0  0  0  0  0  0  0  0  0  0  0  0
    5.9370   -0.2298    0.0000 C   0  0  0  0  0  0  0  0  0  0  0  0
    5.2224   -0.6423    0.0000 C   0  0  0  0  0  0  0  0  0  0  0  0
    4.2060    1.7222    0.0000 C   0  0  0  0  0  0  0  0  0  0  0  0
    3.3810    0.2932    0.0000 C   0  0  0  0  0  0  0  0  0  0  0  0
    3.0791    1.4203    0.0000 C   0  0  0  0  0  0  0  0  0  0  0  0
    6.7620   -0.2298    0.0000 C   0  0  0  0  0  0  0  0  0  0  0  0
    6.7620    1.4203    0.0000 C   0  0  0  0  0  0  0  0  0  0  0  0
    7.5870    0.5953    0.0000 C   0  0  0  0  0  0  0  0  0  0  0  0
    3.7935   -3.1173    0.0000 C   0  0  0  0  0  0  0  0  0  0  0  0
    4.5080   -3.5298    0.0000 C   0  0  0  0  0  0  0  0  0  0  0  0
    3.0791   -3.5298    0.0000 C   0  0  0  0  0  0  0  0  0  0  0  0
    4.5080   -1.8798    0.0000 C   0  0  0  0  0  0  0  0  0  0  0  0
    5.6350   -4.0529    0.0000 C   0  0  0  0  0  0  0  0  0  0  0  0
    4.8099   -5.4819    0.0000 C   0  0  0  0  0  0  0  0  0  0  0  0
    5.9370   -5.1799    0.0000 C   0  0  0  0  0  0  0  0  0  0  0  0
    2.7770   -5.4819    0.0000 C   0  0  0  0  0  0  0  0  0  0  0  0
    1.9520   -4.0529    0.0000 C   0  0  0  0  0  0  0  0  0  0  0  0
    1.6500   -5.1799    0.0000 C   0  0  0  0  0  0  0  0  0  0  0  0
    4.9205   -2.5944    0.0000 C   0  0  0  0  0  0  0  0  0  0  0  0
    4.0955   -1.1653    0.0000 C   0  0  0  0  0  0  0  0  0  0  0  0
    5.6350    2.5472    0.0000 C   0  0  0  0  0  0  0  0  0  0  0  0
    5.2224    3.2617    0.0000 C   0  0  0  0  0  0  0  0  0  0  0  0
    5.6350    3.9762    0.0000 C   0  0  0  0  0  0  0  0  0  0  0  0
    5.2224    4.6907    0.0000 C   0  0  0  0  0  0  0  0  0  0  0  0
  1 20  1  0  0  0  0
  1 30  1  0  0  0  0
  2 27  1  0  0  0  0
  2 30  1  0  0  0  0
  3 16  1  0  0  0  0
  3 39  1  0  0  0  0
  4 17  1  0  0  0  0
  5 39  2  0  0  0  0
  6 42  1  0  0  0  0
  7 42  2  0  0  0  0
  8 12  1  0  0  0  0
  8 21  1  0  0  0  0
  8 22  1  0  0  0  0
  8 23  1  0  0  0  0
  9 13  1  0  0  0  0
  9 24  1  0  0  0  0
  9 25  1  0  0  0  0
  9 26  1  0  0  0  0
 10 14  1  0  0  0  0
 10 31  1  0  0  0  0
 10 32  1  0  0  0  0
 10 33  1  0  0  0  0
 11 15  1  0  0  0  0
 11 34  1  0  0  0  0
 11 35  1  0  0  0  0
 11 36  1  0  0  0  0
 12 16  2  0  0  0  0
 12 18  1  0  0  0  0
 13 16  1  0  0  0  0
 13 19  2  0  0  0  0
 14 17  2  0  0  0  0
 14 28  1  0  0  0  0
 15 17  1  0  0  0  0
 15 29  2  0  0  0  0
 18 20  2  0  0  0  0
 19 20  1  0  0  0  0
 27 28  2  0  0  0  0
 27 29  1  0  0  0  0
 30 37  1  0  0  0  0
 30 38  1  0  0  0  0
 39 40  1  0  0  0  0
 40 41  1  0  0  0  0
 41 42  1  0  0  0  0
M  END
> <DRUGBANK_ID>
DB05399

> <DRUG_GROUPS>
investigational

> <GENERIC_NAME>
AGI-1067

> <CHEMICAL_FORMULA>
C35H52O5S2

> <MOLECULAR_WEIGHT>
616.914

> <EXACT_MASS>
616.325616154

> <IUPAC_NAME>
4-[2,6-di-tert-butyl-4-({2-[(3,5-di-tert-butyl-4-hydroxyphenyl)sulfanyl]propan-2-yl}sulfanyl)phenoxy]-4-oxobutanoic acid

> <IUPAC_TRADITIONAL_NAME>
succinobucol

> <INCHI_IDENTIFIER>
InChI=1S/C35H52O5S2/c1-31(2,3)23-17-21(18-24(29(23)39)32(4,5)6)41-35(13,14)42-22-19-25(33(7,8)9)30(26(20-22)34(10,11)12)40-28(38)16-15-27(36)37/h17-20,39H,15-16H2,1-14H3,(H,36,37)

> <INCHI_KEY>
InChIKey=RKSMVPNZHBRNNS-UHFFFAOYSA-N

> <SMILES>
CC(C)(C)C1=CC(SC(C)(C)SC2=CC(=C(OC(=O)CCC(O)=O)C(=C2)C(C)(C)C)C(C)(C)C)=CC(=C1O)C(C)(C)C

> <JCHEM_ACCEPTOR_COUNT>
4

> <JCHEM_DONOR_COUNT>
2

> <JCHEM_ACIDIC_PKA>
4.33

> <JCHEM_BASIC_PKA>
-5.1

> <JCHEM_PHYSIOLOGICAL_CHARGE>
-1

> <ALOGPS_LOGP>
8.18

> <JCHEM_LOGP>
10.31

> <ALOGPS_LOGS>
-7.3

> <JCHEM_POLARIZABILITY>
71.4

> <JCHEM_POLAR_SURFACE_AREA>
83.83

> <JCHEM_REFRACTIVITY>
179.3

> <JCHEM_ROTATABLE_BOND_COUNT>
13

> <ALOGPS_SOLUBILITY>
3.09e-05 g/l __ 

$$$$
