
  Mrv0541 02231218082D          

  6  4  0  0  0  0            999 V2000
    1.3084    3.6547    0.0000 Cl   0  5  0  0  0  0  0  0  0  0  0  0
    2.5864    1.0807    0.0000 N    0  3  0  0  0  0  0  0  0  0  0  0
    1.8719    1.4932    0.0000 N    0  0  0  0  0  0  0  0  0  0  0  0
    0.4429    1.4932    0.0000 N    0  0  0  0  0  0  0  0  0  0  0  0
    1.1575    0.2557    0.0000 N    0  0  0  0  0  0  0  0  0  0  0  0
    1.1575    1.0807    0.0000 C    0  0  0  0  0  0  0  0  0  0  0  0
  2  3  1  0  0  0  0
  3  6  2  0  0  0  0
  4  6  1  0  0  0  0
  5  6  1  0  0  0  0
M  END
> <DRUGBANK_ID>
DB05383

> <DRUG_GROUPS>
investigational

> <GENERIC_NAME>
pimagedine HCl

> <CHEMICAL_FORMULA>
CH7ClN4

> <MOLECULAR_WEIGHT>
110.546

> <EXACT_MASS>
110.035923951

> <IUPAC_NAME>
2-azaniumylguanidine chloride

> <IUPAC_TRADITIONAL_NAME>
2-aminioguanidine chloride

> <INCHI_IDENTIFIER>
InChI=1S/CH6N4.ClH/c2-1(3)5-4;/h4H2,(H4,2,3,5);1H

> <INCHI_KEY>
InChIKey=UBDZFAGVPPMTIT-UHFFFAOYSA-N

> <SMILES>
[Cl-].NC(N)=N[NH3+]

> <JCHEM_ACCEPTOR_COUNT>
3

> <JCHEM_DONOR_COUNT>
3

> <JCHEM_BASIC_PKA>
10.77

> <JCHEM_PHYSIOLOGICAL_CHARGE>
1

> <ALOGPS_LOGP>
-1.7

> <JCHEM_LOGP>
-1.5

> <ALOGPS_LOGS>
-0.53

> <JCHEM_POLARIZABILITY>
7.32

> <JCHEM_POLAR_SURFACE_AREA>
92.04

> <JCHEM_REFRACTIVITY>
30.16

> <JCHEM_ROTATABLE_BOND_COUNT>
0

> <ALOGPS_SOLUBILITY>
3.28e+01 g/l __ 

$$$$
