
  Mrv0541 02231218072D          

 17 18  0  0  0  0            999 V2000
    4.9232   -0.6075    0.0000 O   0  0  0  0  0  0  0  0  0  0  0  0
    3.0791    1.4232    0.0000 N   0  0  0  0  0  0  0  0  0  0  0  0
    3.8597    1.6746    0.0000 N   0  0  0  0  0  0  0  0  0  0  0  0
    3.8597    0.3468    0.0000 C   0  0  0  0  0  0  0  0  0  0  0  0
    5.1662    1.0106    0.0000 C   0  0  0  0  0  0  0  0  0  0  0  0
    4.3412    1.0106    0.0000 C   0  0  0  0  0  0  0  0  0  0  0  0
    3.0791    0.5981    0.0000 C   0  0  0  0  0  0  0  0  0  0  0  0
    3.5650   -1.0515    0.0000 C   0  0  0  0  0  0  0  0  0  0  0  0
    4.1159   -0.4374    0.0000 C   0  0  0  0  0  0  0  0  0  0  0  0
    5.5787    1.7252    0.0000 C   0  0  0  0  0  0  0  0  0  0  0  0
    5.5787    0.2962    0.0000 C   0  0  0  0  0  0  0  0  0  0  0  0
    2.3645    0.1856    0.0000 C   0  0  0  0  0  0  0  0  0  0  0  0
    3.8213   -1.8357    0.0000 C   0  0  0  0  0  0  0  0  0  0  0  0
    2.7577   -0.8814    0.0000 C   0  0  0  0  0  0  0  0  0  0  0  0
    2.3645    1.8357    0.0000 C   0  0  0  0  0  0  0  0  0  0  0  0
    1.6500    0.5981    0.0000 C   0  0  0  0  0  0  0  0  0  0  0  0
    1.6500    1.4232    0.0000 C   0  0  0  0  0  0  0  0  0  0  0  0
  1  9  2  0  0  0  0
  2  3  1  0  0  0  0
  2  7  1  0  0  0  0
  2 15  1  0  0  0  0
  3  6  2  0  0  0  0
  4  6  1  0  0  0  0
  4  7  2  0  0  0  0
  4  9  1  0  0  0  0
  5  6  1  0  0  0  0
  5 10  1  0  0  0  0
  5 11  1  0  0  0  0
  7 12  1  0  0  0  0
  8  9  1  0  0  0  0
  8 13  1  0  0  0  0
  8 14  1  0  0  0  0
 12 16  2  0  0  0  0
 15 17  2  0  0  0  0
 16 17  1  0  0  0  0
M  END
> <DRUGBANK_ID>
DB05266

> <DRUG_GROUPS>
approved; investigational

> <GENERIC_NAME>
Ibudilast

> <SYNONYMS>
Ibudilast; Ibudilastum

> <CHEMICAL_FORMULA>
C14H18N2O

> <MOLECULAR_WEIGHT>
230.3055

> <EXACT_MASS>
230.141913208

> <IUPAC_NAME>
2-methyl-1-[2-(propan-2-yl)pyrazolo[1,5-a]pyridin-3-yl]propan-1-one

> <IUPAC_TRADITIONAL_NAME>
1-{2-isopropylpyrazolo[1,5-a]pyridin-3-yl}-2-methylpropan-1-one

> <INCHI_IDENTIFIER>
InChI=1S/C14H18N2O/c1-9(2)13-12(14(17)10(3)4)11-7-5-6-8-16(11)15-13/h5-10H,1-4H3

> <INCHI_KEY>
InChIKey=ZJVFLBOZORBYFE-UHFFFAOYSA-N

> <SMILES>
CC(C)C(=O)C1=C2C=CC=CN2N=C1C(C)C

> <JCHEM_ACCEPTOR_COUNT>
2

> <JCHEM_DONOR_COUNT>
0

> <JCHEM_ACIDIC_PKA>
16.12

> <JCHEM_BASIC_PKA>
1.86

> <JCHEM_PHYSIOLOGICAL_CHARGE>
0

> <ALOGPS_LOGP>
3.36

> <JCHEM_LOGP>
3.68

> <ALOGPS_LOGS>
-3.1

> <JCHEM_POLARIZABILITY>
26.31

> <JCHEM_POLAR_SURFACE_AREA>
34.37

> <JCHEM_REFRACTIVITY>
79.38

> <JCHEM_ROTATABLE_BOND_COUNT>
3

> <ALOGPS_SOLUBILITY>
1.79e-01 g/l __ 

$$$$
