
  Mrv0541 02231218082D          

 72 75  0  0  1  0            999 V2000
    7.2659    7.5242    0.0000 F   0  0  0  0  0  0  0  0  0  0  0  0
    7.2659   16.6984    0.0000 F   0  0  0  0  0  0  0  0  0  0  0  0
    8.6949    5.0491    0.0000 O   0  0  0  0  0  0  0  0  0  0  0  0
    8.6949   14.2233    0.0000 O   0  0  0  0  0  0  0  0  0  0  0  0
   12.9818    2.5741    0.0000 O   0  0  0  0  0  0  0  0  0  0  0  0
   12.9818   11.7483    0.0000 O   0  0  0  0  0  0  0  0  0  0  0  0
    1.8720    7.3179    0.0000 O   0  0  0  0  0  0  0  0  0  0  0  0
    2.5864    9.3805    0.0000 O   0  0  0  0  0  0  0  0  0  0  0  0
    0.4430    8.1429    0.0000 O   0  0  0  0  0  0  0  0  0  0  0  0
    4.0154    8.5554    0.0000 O   0  0  0  0  0  0  0  0  0  0  0  0
    1.1575    9.3805    0.0000 O   0  0  0  0  0  0  0  0  0  0  0  0
    3.3009    7.3179    0.0000 O   0  0  0  0  0  0  0  0  0  0  0  0
    7.9804    1.3365    0.0000 N   0  0  0  0  0  0  0  0  0  0  0  0
    7.9804   10.5107    0.0000 N   0  0  0  0  0  0  0  0  0  0  0  0
    7.9804    3.8116    0.0000 N   0  0  0  0  0  0  0  0  0  0  0  0
    7.9804   12.9858    0.0000 N   0  0  0  0  0  0  0  0  0  0  0  0
    9.4093    3.8116    0.0000 N   0  0  0  0  0  0  0  0  0  0  0  0
    9.4093   12.9858    0.0000 N   0  0  0  0  0  0  0  0  0  0  0  0
    7.9804    2.9866    0.0000 C   0  0  0  0  0  0  0  0  0  0  0  0
    7.9804   12.1608    0.0000 C   0  0  0  0  0  0  0  0  0  0  0  0
    8.6949    2.5741    0.0000 C   0  0  0  0  0  0  0  0  0  0  0  0
    7.2659    2.5741    0.0000 C   0  0  0  0  0  0  0  0  0  0  0  0
    8.6949   11.7483    0.0000 C   0  0  0  0  0  0  0  0  0  0  0  0
    7.2659   11.7483    0.0000 C   0  0  0  0  0  0  0  0  0  0  0  0
    8.6949    1.7490    0.0000 C   0  0  0  0  0  0  0  0  0  0  0  0
    7.2659    1.7490    0.0000 C   0  0  0  0  0  0  0  0  0  0  0  0
    8.6949   10.9232    0.0000 C   0  0  0  0  0  0  0  0  0  0  0  0
    7.2659   10.9232    0.0000 C   0  0  0  0  0  0  0  0  0  0  0  0
    7.2659    4.2241    0.0000 C   0  0  0  0  0  0  0  0  0  0  0  0
    7.2659   13.3983    0.0000 C   0  0  0  0  0  0  0  0  0  0  0  0
    7.9804    0.5115    0.0000 C   0  0  0  0  0  0  0  0  0  0  0  0
    7.9804    9.6857    0.0000 C   0  0  0  0  0  0  0  0  0  0  0  0
    8.6949    4.2241    0.0000 C   0  0  0  0  0  0  0  0  0  0  0  0
    8.6949   13.3983    0.0000 C   0  0  0  0  0  0  0  0  0  0  0  0
    7.2659    5.0491    0.0000 C   0  0  0  0  0  0  0  0  0  0  0  0
    7.2659   14.2233    0.0000 C   0  0  0  0  0  0  0  0  0  0  0  0
    6.5514    5.4616    0.0000 C   0  0  0  0  0  0  0  0  0  0  0  0
    6.5514   14.6358    0.0000 C   0  0  0  0  0  0  0  0  0  0  0  0
    7.9804    5.4616    0.0000 C   0  0  0  0  0  0  0  0  0  0  0  0
    7.9804   14.6358    0.0000 C   0  0  0  0  0  0  0  0  0  0  0  0
   10.1239    4.2241    0.0000 C   0  0  0  0  0  0  0  0  0  0  0  0
   10.1239   13.3983    0.0000 C   0  0  0  0  0  0  0  0  0  0  0  0
    6.5514    6.2866    0.0000 C   0  0  0  0  0  0  0  0  0  0  0  0
    6.5514   15.4608    0.0000 C   0  0  0  0  0  0  0  0  0  0  0  0
    7.9804    6.2866    0.0000 C   0  0  0  0  0  0  0  0  0  0  0  0
    7.9804   15.4608    0.0000 C   0  0  0  0  0  0  0  0  0  0  0  0
   10.8383    3.8116    0.0000 C   0  0  0  0  0  0  0  0  0  0  0  0
   10.8383   12.9858    0.0000 C   0  0  0  0  0  0  0  0  0  0  0  0
    7.2659    6.6991    0.0000 C   0  0  0  0  0  0  0  0  0  0  0  0
    7.2659   15.8733    0.0000 C   0  0  0  0  0  0  0  0  0  0  0  0
   11.5528    4.2241    0.0000 C   0  0  0  0  0  0  0  0  0  0  0  0
   11.5528   13.3983    0.0000 C   0  0  0  0  0  0  0  0  0  0  0  0
   10.8383    2.9866    0.0000 C   0  0  0  0  0  0  0  0  0  0  0  0
   10.8383   12.1608    0.0000 C   0  0  0  0  0  0  0  0  0  0  0  0
   12.2673    3.8116    0.0000 C   0  0  0  0  0  0  0  0  0  0  0  0
   12.2673   12.9858    0.0000 C   0  0  0  0  0  0  0  0  0  0  0  0
   11.5528    2.5741    0.0000 C   0  0  0  0  0  0  0  0  0  0  0  0
   11.5528   11.7483    0.0000 C   0  0  0  0  0  0  0  0  0  0  0  0
   12.2673    2.9866    0.0000 C   0  0  0  0  0  0  0  0  0  0  0  0
   12.2673   12.1608    0.0000 C   0  0  0  0  0  0  0  0  0  0  0  0
   13.6963    2.9866    0.0000 C   0  0  0  0  0  0  0  0  0  0  0  0
   13.6963   12.1608    0.0000 C   0  0  0  0  0  0  0  0  0  0  0  0
   14.4108    2.5741    0.0000 C   0  0  0  0  0  0  0  0  0  0  0  0
   14.4108   11.7483    0.0000 C   0  0  0  0  0  0  0  0  0  0  0  0
   14.4108    1.7490    0.0000 C   0  0  0  0  0  0  0  0  0  0  0  0
   15.1252    2.9866    0.0000 C   0  0  0  0  0  0  0  0  0  0  0  0
   14.4108   10.9232    0.0000 C   0  0  0  0  0  0  0  0  0  0  0  0
   15.1252   12.1608    0.0000 C   0  0  0  0  0  0  0  0  0  0  0  0
    1.8720    8.1429    0.0000 C   0  0  2  0  0  0  0  0  0  0  0  0
    2.5864    8.5554    0.0000 C   0  0  2  0  0  0  0  0  0  0  0  0
    1.1575    8.5554    0.0000 C   0  0  0  0  0  0  0  0  0  0  0  0
    3.3009    8.1429    0.0000 C   0  0  0  0  0  0  0  0  0  0  0  0
  1 49  1  0  0  0  0
  2 50  1  0  0  0  0
  3 33  2  0  0  0  0
  4 34  2  0  0  0  0
  5 59  1  0  0  0  0
  5 61  1  0  0  0  0
  6 60  1  0  0  0  0
  6 62  1  0  0  0  0
 69  7  1  1  0  0  0
 70  8  1  1  0  0  0
  9 71  1  0  0  0  0
 10 72  1  0  0  0  0
 11 71  2  0  0  0  0
 12 72  2  0  0  0  0
 13 25  1  0  0  0  0
 13 26  1  0  0  0  0
 13 31  1  0  0  0  0
 14 27  1  0  0  0  0
 14 28  1  0  0  0  0
 14 32  1  0  0  0  0
 15 19  1  0  0  0  0
 15 29  1  0  0  0  0
 15 33  1  0  0  0  0
 16 20  1  0  0  0  0
 16 30  1  0  0  0  0
 16 34  1  0  0  0  0
 17 33  1  0  0  0  0
 17 41  1  0  0  0  0
 18 34  1  0  0  0  0
 18 42  1  0  0  0  0
 19 21  1  0  0  0  0
 19 22  1  0  0  0  0
 20 23  1  0  0  0  0
 20 24  1  0  0  0  0
 21 25  1  0  0  0  0
 22 26  1  0  0  0  0
 23 27  1  0  0  0  0
 24 28  1  0  0  0  0
 29 35  1  0  0  0  0
 30 36  1  0  0  0  0
 35 37  2  0  0  0  0
 35 39  1  0  0  0  0
 36 38  2  0  0  0  0
 36 40  1  0  0  0  0
 37 43  1  0  0  0  0
 38 44  1  0  0  0  0
 39 45  2  0  0  0  0
 40 46  2  0  0  0  0
 41 47  1  0  0  0  0
 42 48  1  0  0  0  0
 43 49  2  0  0  0  0
 44 50  2  0  0  0  0
 45 49  1  0  0  0  0
 46 50  1  0  0  0  0
 47 51  2  0  0  0  0
 47 53  1  0  0  0  0
 48 52  2  0  0  0  0
 48 54  1  0  0  0  0
 51 55  1  0  0  0  0
 52 56  1  0  0  0  0
 53 57  2  0  0  0  0
 54 58  2  0  0  0  0
 55 59  2  0  0  0  0
 56 60  2  0  0  0  0
 57 59  1  0  0  0  0
 58 60  1  0  0  0  0
 61 63  1  0  0  0  0
 62 64  1  0  0  0  0
 63 65  1  0  0  0  0
 63 66  1  0  0  0  0
 64 67  1  0  0  0  0
 64 68  1  0  0  0  0
 69 70  1  0  0  0  0
 69 71  1  0  0  0  0
 70 72  1  0  0  0  0
M  END
> <DRUGBANK_ID>
DB05316

> <DRUG_GROUPS>
investigational

> <GENERIC_NAME>
ACP-103

> <CHEMICAL_FORMULA>
C54H74F2N6O10

> <MOLECULAR_WEIGHT>
1005.1964

> <EXACT_MASS>
1004.543449028

> <IUPAC_NAME>
(2R,3R)-2,3-dihydroxybutanedioic acid; bis(3-[(4-fluorophenyl)methyl]-3-(1-methylpiperidin-4-yl)-1-{[4-(2-methylpropoxy)phenyl]methyl}urea)

> <IUPAC_TRADITIONAL_NAME>
(+)-tartaric acid; bis(3-[(4-fluorophenyl)methyl]-3-(1-methylpiperidin-4-yl)-1-{[4-(2-methylpropoxy)phenyl]methyl}urea)

> <INCHI_IDENTIFIER>
InChI=1S/2C25H34FN3O2.C4H6O6/c2*1-19(2)18-31-24-10-6-20(7-11-24)16-27-25(30)29(23-12-14-28(3)15-13-23)17-21-4-8-22(26)9-5-21;5-1(3(7)8)2(6)4(9)10/h2*4-11,19,23H,12-18H2,1-3H3,(H,27,30);1-2,5-6H,(H,7,8)(H,9,10)/t;;1-,2-/m..1/s1

> <INCHI_KEY>
InChIKey=RGSULKHNAKTFIZ-CEAXSRTFSA-N

> <SMILES>
O[C@H]([C@@H](O)C(O)=O)C(O)=O.CC(C)COC1=CC=C(CNC(=O)N(CC2=CC=C(F)C=C2)C2CCN(C)CC2)C=C1.CC(C)COC1=CC=C(CNC(=O)N(CC2=CC=C(F)C=C2)C2CCN(C)CC2)C=C1

> <JCHEM_ACCEPTOR_COUNT>
3

> <JCHEM_DONOR_COUNT>
1

> <JCHEM_ACIDIC_PKA>
14.66

> <JCHEM_BASIC_PKA>
8.44

> <JCHEM_PHYSIOLOGICAL_CHARGE>
1

> <JCHEM_LOGP>
4.01

> <JCHEM_POLARIZABILITY>
48.37

> <JCHEM_POLAR_SURFACE_AREA>
44.81

> <JCHEM_REFRACTIVITY>
122.93

> <JCHEM_ROTATABLE_BOND_COUNT>
19 __ 

$$$$
