
  Mrv0541 02231218142D          

 29 31  0  0  0  0            999 V2000
    2.4751   -1.8357    0.0000 S   0  0  0  0  0  0  0  0  0  0  0  0
    9.1807   -0.1856    0.0000 F   0  0  0  0  0  0  0  0  0  0  0  0
    5.3992   -0.8496    0.0000 O   0  0  0  0  0  0  0  0  0  0  0  0
    2.4751    0.6394    0.0000 O   0  0  0  0  0  0  0  0  0  0  0  0
    6.4628    1.4326    0.0000 O   0  0  0  0  0  0  0  0  0  0  0  0
    3.3001   -1.8357    0.0000 O   0  0  0  0  0  0  0  0  0  0  0  0
    1.6500   -1.8357    0.0000 O   0  0  0  0  0  0  0  0  0  0  0  0
    2.4751   -1.0106    0.0000 N   0  0  0  0  0  0  0  0  0  0  0  0
    5.1045    1.8765    0.0000 N   0  0  0  0  0  0  0  0  0  0  0  0
    4.6185    0.2269    0.0000 C   0  0  0  0  0  0  0  0  0  0  0  0
    4.6185   -0.5981    0.0000 C   0  0  0  0  0  0  0  0  0  0  0  0
    5.3992    0.4783    0.0000 C   0  0  0  0  0  0  0  0  0  0  0  0
    3.1895   -0.5981    0.0000 C   0  0  0  0  0  0  0  0  0  0  0  0
    5.8806   -0.1856    0.0000 C   0  0  0  0  0  0  0  0  0  0  0  0
    3.1895    0.2269    0.0000 C   0  0  0  0  0  0  0  0  0  0  0  0
    3.9041    0.6394    0.0000 C   0  0  0  0  0  0  0  0  0  0  0  0
    3.9041   -1.0106    0.0000 C   0  0  0  0  0  0  0  0  0  0  0  0
    6.7057   -0.1856    0.0000 C   0  0  0  0  0  0  0  0  0  0  0  0
    2.4751    1.4644    0.0000 C   0  0  0  0  0  0  0  0  0  0  0  0
    5.6555    1.2624    0.0000 C   0  0  0  0  0  0  0  0  0  0  0  0
    7.1182    0.5288    0.0000 C   0  0  0  0  0  0  0  0  0  0  0  0
    7.1182   -0.9002    0.0000 C   0  0  0  0  0  0  0  0  0  0  0  0
    1.7606    1.8769    0.0000 C   0  0  0  0  0  0  0  0  0  0  0  0
    3.1895    1.8769    0.0000 C   0  0  0  0  0  0  0  0  0  0  0  0
    2.4751   -2.6607    0.0000 C   0  0  0  0  0  0  0  0  0  0  0  0
    7.9432    0.5288    0.0000 C   0  0  0  0  0  0  0  0  0  0  0  0
    7.9432   -0.9002    0.0000 C   0  0  0  0  0  0  0  0  0  0  0  0
    8.3557   -0.1856    0.0000 C   0  0  0  0  0  0  0  0  0  0  0  0
    5.3608    2.6607    0.0000 C   0  0  0  0  0  0  0  0  0  0  0  0
  1  6  2  0  0  0  0
  1  7  2  0  0  0  0
  1  8  1  0  0  0  0
  1 25  1  0  0  0  0
  2 28  1  0  0  0  0
  3 11  1  0  0  0  0
  3 14  1  0  0  0  0
  4 15  1  0  0  0  0
  4 19  1  0  0  0  0
  5 20  2  0  0  0  0
  8 13  1  0  0  0  0
  9 20  1  0  0  0  0
  9 29  1  0  0  0  0
 10 11  1  0  0  0  0
 10 12  1  0  0  0  0
 10 16  2  0  0  0  0
 11 17  2  0  0  0  0
 12 14  2  0  0  0  0
 12 20  1  0  0  0  0
 13 15  2  0  0  0  0
 13 17  1  0  0  0  0
 14 18  1  0  0  0  0
 15 16  1  0  0  0  0
 18 21  2  0  0  0  0
 18 22  1  0  0  0  0
 19 23  1  0  0  0  0
 19 24  1  0  0  0  0
 21 26  1  0  0  0  0
 22 27  2  0  0  0  0
 26 28  2  0  0  0  0
 27 28  1  0  0  0  0
M  END
> <DRUGBANK_ID>
DB05884

> <DRUG_GROUPS>
investigational

> <GENERIC_NAME>
HCV-086

> <CHEMICAL_FORMULA>
C20H21FN2O5S

> <MOLECULAR_WEIGHT>
420.455

> <EXACT_MASS>
420.115520687

> <IUPAC_NAME>
2-(4-fluorophenyl)-6-methanesulfonamido-N-methyl-5-(propan-2-yloxy)-1-benzofuran-3-carboxamide

> <IUPAC_TRADITIONAL_NAME>
2-(4-fluorophenyl)-5-isopropoxy-6-methanesulfonamido-N-methyl-1-benzofuran-3-carboxamide

> <INCHI_IDENTIFIER>
InChI=1S/C20H21FN2O5S/c1-11(2)27-17-9-14-16(10-15(17)23-29(4,25)26)28-19(18(14)20(24)22-3)12-5-7-13(21)8-6-12/h5-11,23H,1-4H3,(H,22,24)

> <INCHI_KEY>
InChIKey=VBRUONUESYTIDA-UHFFFAOYSA-N

> <SMILES>
CNC(=O)C1=C(OC2=CC(NS(C)(=O)=O)=C(OC(C)C)C=C12)C1=CC=C(F)C=C1

> <JCHEM_ACCEPTOR_COUNT>
4

> <JCHEM_DONOR_COUNT>
2

> <JCHEM_ACIDIC_PKA>
7.05

> <JCHEM_BASIC_PKA>
-1.7

> <JCHEM_PHYSIOLOGICAL_CHARGE>
0

> <ALOGPS_LOGP>
3.27

> <JCHEM_LOGP>
1.91

> <ALOGPS_LOGS>
-4.1

> <JCHEM_POLARIZABILITY>
42.83

> <JCHEM_POLAR_SURFACE_AREA>
97.64

> <JCHEM_REFRACTIVITY>
106.42

> <JCHEM_ROTATABLE_BOND_COUNT>
5

> <ALOGPS_SOLUBILITY>
3.57e-02 g/l __ 

$$$$
