
  Mrv0541 02231218112D          

 35 38  0  0  1  0            999 V2000
    5.4021    1.8192    0.0000 Cl   0  0  0  0  0  0  0  0  0  0  0  0
    6.3601    2.8794    0.0000 Cl   0  0  0  0  0  0  0  0  0  0  0  0
    6.6263    0.7130    0.0000 O    0  0  0  0  0  0  0  0  0  0  0  0
    3.9559    0.0890    0.0000 O    0  0  0  0  0  0  0  0  0  0  0  0
    8.1843   -0.6555    0.0000 O    0  0  0  0  0  0  0  0  0  0  0  0
    8.0374    0.7658    0.0000 O    0  0  0  0  0  0  0  0  0  0  0  0
    1.6500   -2.8416    0.0000 O    0  0  0  0  0  0  0  0  0  0  0  0
    7.5843    1.7733    0.0000 O    0  0  0  0  0  0  0  0  0  0  0  0
    6.0993   -0.3235    0.0000 C    0  0  1  0  0  0  0  0  0  0  0  0
    6.0993   -1.1485    0.0000 C    0  0  2  0  0  0  0  0  0  0  0  0
    5.3849   -1.5610    0.0000 C    0  0  1  0  0  0  0  0  0  0  0  0
    4.6703   -1.1485    0.0000 C    0  0  2  0  0  0  0  0  0  0  0  0
    6.8799   -0.0720    0.0000 C    0  0  0  0  0  0  0  0  0  0  0  0
    5.3849    0.0890    0.0000 C    0  0  0  0  0  0  0  0  0  0  0  0
    6.8799   -1.3999    0.0000 C    0  0  0  0  0  0  0  0  0  0  0  0
    4.6703   -0.3235    0.0000 C    0  0  2  0  0  0  0  0  0  0  0  0
    3.9196   -1.5666    0.0000 C    0  0  1  0  0  0  0  0  0  0  0  0
    7.3614   -0.7360    0.0000 C    0  0  0  0  0  0  0  0  0  0  0  0
    5.3981   -2.4202    0.0000 C    0  0  0  0  0  0  0  0  0  0  0  0
    6.0993    0.5015    0.0000 C    0  0  0  0  0  0  0  0  0  0  0  0
    4.6572   -2.8556    0.0000 C    0  0  0  0  0  0  0  0  0  0  0  0
    3.9130   -2.4259    0.0000 C    0  0  0  0  0  0  0  0  0  0  0  0
    7.7006    0.0128    0.0000 C    0  0  0  0  0  0  0  0  0  0  0  0
    3.9259   -0.7416    0.0000 C    0  0  0  0  0  0  0  0  0  0  0  0
    3.1550   -1.1012    0.0000 C    0  0  0  0  0  0  0  0  0  0  0  0
    3.1413   -2.8794    0.0000 C    0  0  0  0  0  0  0  0  0  0  0  0
    2.3730   -1.5368    0.0000 C    0  0  0  0  0  0  0  0  0  0  0  0
    2.3660   -2.4319    0.0000 C    0  0  0  0  0  0  0  0  0  0  0  0
    6.7993    1.5197    0.0000 C    0  0  0  0  0  0  0  0  0  0  0  0
    9.0050   -0.5707    0.0000 C    0  0  0  0  0  0  0  0  0  0  0  0
    6.1872    2.0728    0.0000 C    0  0  0  0  0  0  0  0  0  0  0  0
    9.4888   -1.2390    0.0000 C    0  0  0  0  0  0  0  0  0  0  0  0
    6.1691   -1.8048    0.0000 H    0  0  0  0  0  0  0  0  0  0  0  0
    5.9589   -1.8865    0.0000 H    0  0  0  0  0  0  0  0  0  0  0  0
    5.2420   -0.8185    0.0000 H    0  0  0  0  0  0  0  0  0  0  0  0
  1 31  1  0  0  0  0
  2 31  1  0  0  0  0
  3 13  1  0  0  0  0
  3 29  1  0  0  0  0
 16  4  1  1  0  0  0
  5 23  1  0  0  0  0
  5 30  1  0  0  0  0
  6 23  2  0  0  0  0
  7 28  2  0  0  0  0
  8 29  2  0  0  0  0
  9 10  1  0  0  0  0
  9 13  1  0  0  0  0
  9 14  1  0  0  0  0
  9 20  1  1  0  0  0
 10 11  1  0  0  0  0
 10 15  1  0  0  0  0
 10 33  1  6  0  0  0
 11 12  1  0  0  0  0
 11 19  1  0  0  0  0
 11 34  1  1  0  0  0
 12 16  1  0  0  0  0
 12 17  1  0  0  0  0
 12 35  1  6  0  0  0
 13 18  1  0  0  0  0
 13 23  1  0  0  0  0
 14 16  1  0  0  0  0
 15 18  1  0  0  0  0
 17 22  1  0  0  0  0
 17 24  1  1  0  0  0
 17 25  1  0  0  0  0
 19 21  1  0  0  0  0
 21 22  1  0  0  0  0
 22 26  2  0  0  0  0
 25 27  2  0  0  0  0
 26 28  1  0  0  0  0
 27 28  1  0  0  0  0
 29 31  1  0  0  0  0
 30 32  1  0  0  0  0
M  END
> <DRUGBANK_ID>
DB05442

> <DRUG_GROUPS>
investigational

> <GENERIC_NAME>
BNP-166

> <SYNONYMS>


> <CHEMICAL_FORMULA>
C24H30Cl2O6

> <MOLECULAR_WEIGHT>
485.397

> <EXACT_MASS>
484.141944106

> <IUPAC_NAME>
ethyl (1S,2R,10S,11S,15S,17S)-14-[(2,2-dichloroacetyl)oxy]-17-hydroxy-2,15-dimethyl-5-oxotetracyclo[8.7.0.0^{2,7}.0^{11,15}]heptadeca-3,6-diene-14-carboxylate

> <IUPAC_TRADITIONAL_NAME>
ethyl (1S,2R,10S,11S,15S,17S)-14-[(2,2-dichloroacetyl)oxy]-17-hydroxy-2,15-dimethyl-5-oxotetracyclo[8.7.0.0^{2,7}.0^{11,15}]heptadeca-3,6-diene-14-carboxylate

> <INCHI_IDENTIFIER>
InChI=1S/C24H30Cl2O6/c1-4-31-21(30)24(32-20(29)19(25)26)10-8-16-15-6-5-13-11-14(27)7-9-22(13,2)18(15)17(28)12-23(16,24)3/h7,9,11,15-19,28H,4-6,8,10,12H2,1-3H3/t15-,16-,17-,18+,22-,23-,24?/m0/s1

> <INCHI_KEY>
InChIKey=QAIOVDNCIZSSSF-HROOLPEPSA-N

> <SMILES>
[H][C@@]12CCC(OC(=O)C(Cl)Cl)(C(=O)OCC)[C@@]1(C)C[C@H](O)[C@@]1([H])[C@@]2([H])CCC2=CC(=O)C=C[C@]12C

> <JCHEM_ACCEPTOR_COUNT>
4

> <JCHEM_DONOR_COUNT>
1

> <JCHEM_ACIDIC_PKA>
14.88

> <JCHEM_BASIC_PKA>
-2.9

> <JCHEM_PHYSIOLOGICAL_CHARGE>
0

> <ALOGPS_LOGP>
3.49

> <JCHEM_LOGP>
3.99

> <ALOGPS_LOGS>
-5.3

> <JCHEM_POLARIZABILITY>
49.23

> <JCHEM_POLAR_SURFACE_AREA>
89.9

> <JCHEM_REFRACTIVITY>
121.88

> <JCHEM_ROTATABLE_BOND_COUNT>
6

> <ALOGPS_SOLUBILITY>
2.35e-03 g/l __ 

$$$$
