
  Mrv0541 06171316382D          

 25 27  0  0  1  0            999 V2000
    7.0056   -7.1812    0.0000 C   0  0  0  0  0  0  0  0  0  0  0  0
    7.0056   -8.0062    0.0000 C   0  0  0  0  0  0  0  0  0  0  0  0
    7.7201   -8.4187    0.0000 C   0  0  0  0  0  0  0  0  0  0  0  0
    8.4346   -8.0062    0.0000 C   0  0  0  0  0  0  0  0  0  0  0  0
    8.4346   -7.1812    0.0000 C   0  0  0  0  0  0  0  0  0  0  0  0
    7.7201   -6.7687    0.0000 C   0  0  0  0  0  0  0  0  0  0  0  0
    9.8635   -8.0062    0.0000 C   0  0  0  0  0  0  0  0  0  0  0  0
    9.8635   -7.1812    0.0000 N   0  0  0  0  0  0  0  0  0  0  0  0
    9.1490   -6.7687    0.0000 C   0  0  0  0  0  0  0  0  0  0  0  0
   10.5780   -8.4187    0.0000 N   0  0  0  0  0  0  0  0  0  0  0  0
   11.2925   -8.0062    0.0000 C   0  0  0  0  0  0  0  0  0  0  0  0
   11.2925   -7.1812    0.0000 C   0  0  0  0  0  0  0  0  0  0  0  0
   10.5780   -6.7687    0.0000 C   0  0  0  0  0  0  0  0  0  0  0  0
    7.7201   -5.9438    0.0000 C   0  0  0  0  0  0  0  0  0  0  0  0
    7.7201   -5.1188    0.0000 N   0  0  0  0  0  0  0  0  0  0  0  0
    9.1404   -8.4238    0.0000 O   0  0  0  0  0  0  0  0  0  0  0  0
   10.5780   -9.2435    0.0000 C   0  0  0  0  0  0  0  0  0  0  0  0
   12.0093   -8.4200    0.0000 O   0  0  0  0  0  0  0  0  0  0  0  0
   10.5780   -5.9438    0.0000 N   0  0  0  0  0  0  0  0  0  0  0  0
   11.3047   -5.5241    0.0000 C   0  0  0  0  0  0  0  0  0  0  0  0
   11.3046   -4.6991    0.0000 C   0  0  0  0  0  0  0  0  0  0  0  0
   10.5901   -4.2867    0.0000 C   0  0  0  0  0  0  0  0  0  0  0  0
    9.8633   -4.7065    0.0000 C   0  0  2  0  0  0  0  0  0  0  0  0
    9.8634   -5.5315    0.0000 C   0  0  0  0  0  0  0  0  0  0  0  0
    9.1402   -4.2890    0.0000 N   0  0  0  0  0  0  0  0  0  0  0  0
  1  2  2  0  0  0  0
  2  3  1  0  0  0  0
  3  4  2  0  0  0  0
  4  5  1  0  0  0  0
  5  6  2  0  0  0  0
  1  6  1  0  0  0  0
  7  8  1  0  0  0  0
  8  9  1  0  0  0  0
  5  9  1  0  0  0  0
  7 10  1  0  0  0  0
 10 11  1  0  0  0  0
 11 12  1  0  0  0  0
 12 13  2  0  0  0  0
  8 13  1  0  0  0  0
  6 14  1  0  0  0  0
 14 15  3  0  0  0  0
  7 16  2  0  0  0  0
 10 17  1  0  0  0  0
 11 18  2  0  0  0  0
 13 19  1  0  0  0  0
 19 20  1  0  0  0  0
 20 21  1  0  0  0  0
 21 22  1  0  0  0  0
 22 23  1  0  0  0  0
 23 24  1  0  0  0  0
 19 24  1  0  0  0  0
 23 25  1  6  0  0  0
M  END
> <DRUGBANK_ID>
DB06203

> <DRUG_GROUPS>
approved

> <GENERIC_NAME>
Alogliptin 

> <SYNONYMS>


> <SALTS>
Alogliptin Benzoate 

> <BRANDS>
Nesina 

> <CHEMICAL_FORMULA>
C18H21N5O2

> <MOLECULAR_WEIGHT>
339.3916

> <EXACT_MASS>
339.169524941

> <IUPAC_NAME>
2-({6-[(3R)-3-aminopiperidin-1-yl]-3-methyl-2,4-dioxo-1,2,3,4-tetrahydropyrimidin-1-yl}methyl)benzonitrile

> <IUPAC_TRADITIONAL_NAME>
alogliptin

> <INCHI_IDENTIFIER>
InChI=1S/C18H21N5O2/c1-21-17(24)9-16(22-8-4-7-15(20)12-22)23(18(21)25)11-14-6-3-2-5-13(14)10-19/h2-3,5-6,9,15H,4,7-8,11-12,20H2,1H3/t15-/m1/s1

> <INCHI_KEY>
InChIKey=ZSBOMTDTBDDKMP-OAHLLOKOSA-N

> <SMILES>
CN1C(=O)C=C(N2CCC[C@@H](N)C2)N(CC2=C(C=CC=C2)C#N)C1=O

> <JCHEM_ACCEPTOR_COUNT>
5

> <JCHEM_DONOR_COUNT>
1

> <JCHEM_BASIC_PKA>
9.47

> <JCHEM_PHYSIOLOGICAL_CHARGE>
1

> <ALOGPS_LOGP>
0.66

> <JCHEM_LOGP>
1.16

> <ALOGPS_LOGS>
-2.8

> <JCHEM_POLARIZABILITY>
35.44

> <JCHEM_POLAR_SURFACE_AREA>
93.67

> <JCHEM_REFRACTIVITY>
104.26

> <JCHEM_ROTATABLE_BOND_COUNT>
3

> <ALOGPS_SOLUBILITY>
5.80e-01 g/l __ 

$$$$
