2HS
  Mrv0541 02241213062D          

 21 21  0  0  0  0            999 V2000
   -3.9779    0.1525    0.0000 C   0  0  0  0  0  0  0  0  0  0  0  0
   -3.2634    0.5650    0.0000 C   0  0  0  0  0  0  0  0  0  0  0  0
   -2.5489    0.1525    0.0000 C   0  0  0  0  0  0  0  0  0  0  0  0
   -1.8344    0.5650    0.0000 C   0  0  0  0  0  0  0  0  0  0  0  0
   -1.1200    0.1525    0.0000 C   0  0  0  0  0  0  0  0  0  0  0  0
   -0.4055    0.5650    0.0000 C   0  0  0  0  0  0  0  0  0  0  0  0
    0.3090    0.1525    0.0000 P   0  0  1  0  0  0  0  0  0  0  0  0
   -0.1035   -0.5620    0.0000 O   0  0  0  0  0  0  0  0  0  0  0  0
    1.0234   -0.2600    0.0000 O   0  0  0  0  0  0  0  0  0  0  0  0
    1.7379    0.1525    0.0000 C   0  0  0  0  0  0  0  0  0  0  0  0
    2.4524   -0.2600    0.0000 C   0  0  1  0  0  0  0  0  0  0  0  0
    2.4524   -1.0850    0.0000 C   0  0  0  0  0  0  0  0  0  0  0  0
    3.1669    0.1525    0.0000 C   0  0  0  0  0  0  0  0  0  0  0  0
    3.8813   -0.2600    0.0000 C   0  0  0  0  0  0  0  0  0  0  0  0
    4.5958    0.1525    0.0000 C   0  0  0  0  0  0  0  0  0  0  0  0
    5.3103   -0.2600    0.0000 C   0  0  0  0  0  0  0  0  0  0  0  0
    5.3103   -1.0850    0.0000 C   0  0  0  0  0  0  0  0  0  0  0  0
    4.5958   -1.4975    0.0000 C   0  0  0  0  0  0  0  0  0  0  0  0
    3.8813   -1.0850    0.0000 C   0  0  0  0  0  0  0  0  0  0  0  0
    0.7215    0.8669    0.0000 O   0  0  0  0  0  0  0  0  0  0  0  0
    1.9467   -0.5520    0.0000 H   0  0  0  0  0  0  0  0  0  0  0  0
  1  2  1  0  0  0  0
  2  3  1  0  0  0  0
  3  4  1  0  0  0  0
  4  5  1  0  0  0  0
  5  6  1  0  0  0  0
  6  7  1  0  0  0  0
  7  8  1  1  0  0  0
  7  9  1  6  0  0  0
  7 20  2  0  0  0  0
  9 10  1  0  0  0  0
 10 11  1  0  0  0  0
 11 12  1  6  0  0  0
 11 13  1  0  0  0  0
 11 21  1  1  0  0  0
 13 14  1  0  0  0  0
 14 15  2  0  0  0  0
 14 19  1  0  0  0  0
 15 16  1  0  0  0  0
 16 17  2  0  0  0  0
 17 18  1  0  0  0  0
 18 19  2  0  0  0  0
M  END
> <DRUGBANK_ID>
DB06966

> <DRUG_GROUPS>
experimental

> <GENERIC_NAME>
HEXYLPHOSPHONIC ACID (S)-2-METHYL-3-PHENYLPROPYL ESTER

> <CHEMICAL_FORMULA>
C16H27O3P

> <MOLECULAR_WEIGHT>
298.3575

> <EXACT_MASS>
298.169781242

> <IUPAC_NAME>
hexyl[(2S)-2-methyl-3-phenylpropoxy]phosphinic acid

> <IUPAC_TRADITIONAL_NAME>
hexyl(2S)-2-methyl-3-phenylpropoxyphosphinic acid

> <INCHI_IDENTIFIER>
InChI=1S/C16H27O3P/c1-3-4-5-9-12-20(17,18)19-14-15(2)13-16-10-7-6-8-11-16/h6-8,10-11,15H,3-5,9,12-14H2,1-2H3,(H,17,18)/t15-/m0/s1

> <INCHI_KEY>
InChIKey=MMTDYBZZRYOMFD-HNNXBMFYSA-N

> <SMILES>
[H][C@@](C)(CO[P@@](O)(=O)CCCCCC)CC1=CC=CC=C1

> <JCHEM_ACCEPTOR_COUNT>
2

> <JCHEM_DONOR_COUNT>
1

> <JCHEM_ACIDIC_PKA>
1.96

> <JCHEM_PHYSIOLOGICAL_CHARGE>
-1

> <ALOGPS_LOGP>
3.86

> <JCHEM_LOGP>
4.27

> <ALOGPS_LOGS>
-3.9

> <JCHEM_POLARIZABILITY>
33.64

> <JCHEM_POLAR_SURFACE_AREA>
46.53

> <JCHEM_REFRACTIVITY>
83.3

> <JCHEM_ROTATABLE_BOND_COUNT>
10

> <ALOGPS_SOLUBILITY>
3.73e-02 g/l __ 

$$$$
