1HP
  Mrv0541 02241213042D          

 18 20  0  0  0  0            999 V2000
   -0.3099    0.1356    0.0000 C   0  0  0  0  0  0  0  0  0  0  0  0
   -1.0244    0.5481    0.0000 C   0  0  0  0  0  0  0  0  0  0  0  0
   -1.8090    0.2931    0.0000 N   0  0  0  0  0  0  0  0  0  0  0  0
   -2.0639   -0.4915    0.0000 C   0  0  0  0  0  0  0  0  0  0  0  0
   -2.2939    0.9606    0.0000 C   0  0  0  0  0  0  0  0  0  0  0  0
   -3.1189    0.9606    0.0000 N   0  0  0  0  0  0  0  0  0  0  0  0
   -1.8090    1.6280    0.0000 N   0  0  0  0  0  0  0  0  0  0  0  0
   -1.0244    1.3731    0.0000 C   0  0  0  0  0  0  0  0  0  0  0  0
   -0.3099    1.7856    0.0000 N   0  0  0  0  0  0  0  0  0  0  0  0
    0.4046    1.3731    0.0000 C   0  0  0  0  0  0  0  0  0  0  0  0
    0.4046    0.5481    0.0000 C   0  0  0  0  0  0  0  0  0  0  0  0
    1.1191    0.1356    0.0000 C   0  0  0  0  0  0  0  0  0  0  0  0
    1.1191   -0.6894    0.0000 C   0  0  0  0  0  0  0  0  0  0  0  0
    1.8335   -1.1019    0.0000 C   0  0  0  0  0  0  0  0  0  0  0  0
    2.5480   -0.6894    0.0000 C   0  0  0  0  0  0  0  0  0  0  0  0
    3.2625   -1.1019    0.0000 O   0  0  0  0  0  0  0  0  0  0  0  0
    2.5480    0.1356    0.0000 C   0  0  0  0  0  0  0  0  0  0  0  0
    1.8335    0.5481    0.0000 C   0  0  0  0  0  0  0  0  0  0  0  0
  1  2  1  0  0  0  0
  2  3  1  0  0  0  0
  3  5  1  0  0  0  0
  3  4  1  0  0  0  0
  5  6  1  0  0  0  0
  7  5  2  0  0  0  0
  8  2  2  0  0  0  0
  8  7  1  0  0  0  0
  9  8  1  0  0  0  0
 10  9  2  0  0  0  0
 10 11  1  0  0  0  0
 11  1  2  0  0  0  0
 12 11  1  0  0  0  0
 12 18  2  0  0  0  0
 13 12  1  0  0  0  0
 14 13  2  0  0  0  0
 14 15  1  0  0  0  0
 15 17  2  0  0  0  0
 16 15  1  0  0  0  0
 17 18  1  0  0  0  0
M  END
> <DRUGBANK_ID>
DB06898

> <DRUG_GROUPS>
experimental

> <GENERIC_NAME>
4-(2-amino-1-methyl-1H-imidazo[4,5-b]pyridin-6-yl)phenol

> <CHEMICAL_FORMULA>
C13H12N4O

> <MOLECULAR_WEIGHT>
240.2606

> <EXACT_MASS>
240.101111026

> <IUPAC_NAME>
4-{2-amino-1-methyl-1H-imidazo[4,5-b]pyridin-6-yl}phenol

> <IUPAC_TRADITIONAL_NAME>
4-{2-amino-1-methylimidazo[4,5-b]pyridin-6-yl}phenol

> <INCHI_IDENTIFIER>
InChI=1S/C13H12N4O/c1-17-11-6-9(7-15-12(11)16-13(17)14)8-2-4-10(18)5-3-8/h2-7,18H,1H3,(H2,14,15,16)

> <INCHI_KEY>
InChIKey=UGJXOCBVCWTJFP-UHFFFAOYSA-N

> <SMILES>
CN1C(N)=NC2=C1C=C(C=N2)C1=CC=C(O)C=C1

> <JCHEM_ACCEPTOR_COUNT>
4

> <JCHEM_DONOR_COUNT>
2

> <JCHEM_ACIDIC_PKA>
9.76

> <JCHEM_BASIC_PKA>
5.46

> <JCHEM_PHYSIOLOGICAL_CHARGE>
0

> <ALOGPS_LOGP>
2.15

> <JCHEM_LOGP>
1.79

> <ALOGPS_LOGS>
-2.5

> <JCHEM_POLARIZABILITY>
25.71

> <JCHEM_POLAR_SURFACE_AREA>
76.96

> <JCHEM_REFRACTIVITY>
70.57

> <JCHEM_ROTATABLE_BOND_COUNT>
1

> <ALOGPS_SOLUBILITY>
7.26e-01 g/l __ 

$$$$
