
  Mrv0541 02231218172D          

 18 19  0  0  0  0            999 V2000
    2.3645    0.8332    0.0000 O   0  0  0  0  0  0  0  0  0  0  0  0
    7.3649   -1.2827    0.0000 O   0  0  0  0  0  0  0  0  0  0  0  0
    5.9361   -1.2661    0.0000 N   0  0  0  0  0  0  0  0  0  0  0  0
    5.2455    0.8046    0.0000 C   0  0  0  0  0  0  0  0  0  0  0  0
    5.2360   -0.0204    0.0000 C   0  0  0  0  0  0  0  0  0  0  0  0
    4.5080    1.2457    0.0000 C   0  0  0  0  0  0  0  0  0  0  0  0
    4.5080    2.0707    0.0000 C   0  0  0  0  0  0  0  0  0  0  0  0
    5.9457   -0.4411    0.0000 C   0  0  0  0  0  0  0  0  0  0  0  0
    5.9930    1.2285    0.0000 C   0  0  0  0  0  0  0  0  0  0  0  0
    3.7935    0.8332    0.0000 C   0  0  0  0  0  0  0  0  0  0  0  0
    5.2455    2.5118    0.0000 C   0  0  0  0  0  0  0  0  0  0  0  0
    3.7935    2.4832    0.0000 C   0  0  0  0  0  0  0  0  0  0  0  0
    5.9930    2.0879    0.0000 C   0  0  0  0  0  0  0  0  0  0  0  0
    3.0791    1.2457    0.0000 C   0  0  0  0  0  0  0  0  0  0  0  0
    3.0791    2.0707    0.0000 C   0  0  0  0  0  0  0  0  0  0  0  0
    6.6458   -1.6868    0.0000 C   0  0  0  0  0  0  0  0  0  0  0  0
    6.6362   -2.5118    0.0000 C   0  0  0  0  0  0  0  0  0  0  0  0
    1.6500    1.2457    0.0000 C   0  0  0  0  0  0  0  0  0  0  0  0
  1 14  1  0  0  0  0
  1 18  1  0  0  0  0
  2 16  2  0  0  0  0
  3  8  1  0  0  0  0
  3 16  1  0  0  0  0
  4  5  1  0  0  0  0
  4  6  1  0  0  0  0
  4  9  2  0  0  0  0
  5  8  1  0  0  0  0
  6  7  2  0  0  0  0
  6 10  1  0  0  0  0
  7 11  1  0  0  0  0
  7 12  1  0  0  0  0
  9 13  1  0  0  0  0
 10 14  2  0  0  0  0
 11 13  2  0  0  0  0
 12 15  2  0  0  0  0
 14 15  1  0  0  0  0
 16 17  1  0  0  0  0
M  END
> <DRUGBANK_ID>
DB06594

> <DRUG_GROUPS>
approved; investigational

> <GENERIC_NAME>
Agomelatine

> <BRANDS>
Melitor; Valdoxan

> <CHEMICAL_FORMULA>
C15H17NO2

> <MOLECULAR_WEIGHT>
243.301

> <EXACT_MASS>
243.125928793

> <IUPAC_NAME>
N-[2-(7-methoxynaphthalen-1-yl)ethyl]acetamide

> <IUPAC_TRADITIONAL_NAME>
agomelatine

> <INCHI_IDENTIFIER>
InChI=1S/C15H17NO2/c1-11(17)16-9-8-13-5-3-4-12-6-7-14(18-2)10-15(12)13/h3-7,10H,8-9H2,1-2H3,(H,16,17)

> <INCHI_KEY>
InChIKey=YJYPHIXNFHFHND-UHFFFAOYSA-N

> <SMILES>
COC1=CC2=C(C=CC=C2CCNC(C)=O)C=C1

> <JCHEM_ACCEPTOR_COUNT>
2

> <JCHEM_DONOR_COUNT>
1

> <JCHEM_ACIDIC_PKA>
15.96

> <JCHEM_BASIC_PKA>
-0.94

> <JCHEM_PHYSIOLOGICAL_CHARGE>
0

> <ALOGPS_LOGP>
2.83

> <JCHEM_LOGP>
2.04

> <ALOGPS_LOGS>
-4.5

> <JCHEM_POLARIZABILITY>
27.18

> <JCHEM_POLAR_SURFACE_AREA>
38.33

> <JCHEM_REFRACTIVITY>
71.64

> <JCHEM_ROTATABLE_BOND_COUNT>
4

> <ALOGPS_SOLUBILITY>
7.76e-03 g/l __ 

$$$$
