1OH
  Mrv0541 02241213042D          

 16 17  0  0  0  0            999 V2000
    0.1101    3.2908    0.0000 O   0  0  0  0  0  0  0  0  0  0  0  0
    0.1101    2.4658    0.0000 C   0  0  0  0  0  0  0  0  0  0  0  0
    0.8246    2.0533    0.0000 C   0  0  0  0  0  0  0  0  0  0  0  0
    0.8246    1.2283    0.0000 C   0  0  0  0  0  0  0  0  0  0  0  0
   -0.6044    2.0533    0.0000 C   0  0  0  0  0  0  0  0  0  0  0  0
   -0.6044    1.2283    0.0000 C   0  0  0  0  0  0  0  0  0  0  0  0
    0.1101    0.8158    0.0000 C   0  0  0  0  0  0  0  0  0  0  0  0
    0.1101   -0.0092    0.0000 C   0  0  0  0  0  0  0  0  0  0  0  0
    0.9351   -0.0092    0.0000 C   0  0  0  0  0  0  0  0  0  0  0  0
   -0.7149   -0.0092    0.0000 C   0  0  0  0  0  0  0  0  0  0  0  0
    0.1101   -0.8342    0.0000 C   0  0  0  0  0  0  0  0  0  0  0  0
   -0.6044   -1.2467    0.0000 C   0  0  0  0  0  0  0  0  0  0  0  0
   -0.6044   -2.0717    0.0000 C   0  0  0  0  0  0  0  0  0  0  0  0
    0.1101   -2.4842    0.0000 C   0  0  0  0  0  0  0  0  0  0  0  0
    0.8246   -2.0717    0.0000 C   0  0  0  0  0  0  0  0  0  0  0  0
    0.8246   -1.2467    0.0000 C   0  0  0  0  0  0  0  0  0  0  0  0
  2  1  1  0  0  0  0
  2  3  2  0  0  0  0
  4  3  1  0  0  0  0
  5  2  1  0  0  0  0
  6  5  2  0  0  0  0
  6  7  1  0  0  0  0
  7  4  2  0  0  0  0
  8  7  1  0  0  0  0
  8 10  1  0  0  0  0
  8  9  1  0  0  0  0
 11  8  1  0  0  0  0
 12 11  1  0  0  0  0
 13 12  2  0  0  0  0
 14 15  2  0  0  0  0
 14 13  1  0  0  0  0
 15 16  1  0  0  0  0
 16 11  2  0  0  0  0
M  END
> <DRUGBANK_ID>
DB06902

> <DRUG_GROUPS>
experimental

> <GENERIC_NAME>
4-(1-methyl-1-phenylethyl)phenol

> <CHEMICAL_FORMULA>
C15H16O

> <MOLECULAR_WEIGHT>
212.2869

> <EXACT_MASS>
212.120115134

> <IUPAC_NAME>
4-(2-phenylpropan-2-yl)phenol

> <IUPAC_TRADITIONAL_NAME>
4-(2-phenylpropan-2-yl)phenol

> <INCHI_IDENTIFIER>
InChI=1S/C15H16O/c1-15(2,12-6-4-3-5-7-12)13-8-10-14(16)11-9-13/h3-11,16H,1-2H3

> <INCHI_KEY>
InChIKey=QBDSZLJBMIMQRS-UHFFFAOYSA-N

> <SMILES>
CC(C)(C1=CC=CC=C1)C1=CC=C(O)C=C1

> <JCHEM_ACCEPTOR_COUNT>
1

> <JCHEM_DONOR_COUNT>
1

> <JCHEM_ACIDIC_PKA>
10.08

> <JCHEM_BASIC_PKA>
-5.5

> <JCHEM_PHYSIOLOGICAL_CHARGE>
0

> <ALOGPS_LOGP>
4.7

> <JCHEM_LOGP>
4.35

> <ALOGPS_LOGS>
-4

> <JCHEM_POLARIZABILITY>
24.42

> <JCHEM_POLAR_SURFACE_AREA>
20.23

> <JCHEM_REFRACTIVITY>
77.29

> <JCHEM_ROTATABLE_BOND_COUNT>
2

> <ALOGPS_SOLUBILITY>
2.09e-02 g/l __ 

$$$$
