
  Mrv0541 02231218162D          

 25 26  0  0  1  0            999 V2000
    3.5220    1.2375    0.0000 S   0  0  0  0  0  0  0  0  0  0  0  0
    4.9509   -2.0625    0.0000 O   0  0  0  0  0  0  0  0  0  0  0  0
    3.5220   -2.0625    0.0000 O   0  0  0  0  0  0  0  0  0  0  0  0
    4.3470    1.2375    0.0000 O   0  0  0  0  0  0  0  0  0  0  0  0
    2.6970    1.2375    0.0000 O   0  0  0  0  0  0  0  0  0  0  0  0
    7.1806   -0.0045    0.0000 N   0  0  0  0  0  0  0  0  0  0  0  0
    5.6655   -0.8250    0.0000 N   0  0  0  0  0  0  0  0  0  0  0  0
    2.0930    0.4125    0.0000 N   0  0  0  0  0  0  0  0  0  0  0  0
    7.0944   -0.8250    0.0000 C   0  0  0  0  0  0  0  0  0  0  0  0
    7.8482   -1.1606    0.0000 C   0  0  0  0  0  0  0  0  0  0  0  0
    8.4002   -0.5475    0.0000 C   0  0  0  0  0  0  0  0  0  0  0  0
    7.9877    0.1670    0.0000 C   0  0  0  0  0  0  0  0  0  0  0  0
    6.3799   -1.2375    0.0000 C   0  0  0  0  0  0  0  0  0  0  0  0
    6.5676    0.5476    0.0000 C   0  0  0  0  0  0  0  0  0  0  0  0
    6.7391    1.3545    0.0000 C   0  0  0  0  0  0  0  0  0  0  0  0
    4.9509   -1.2375    0.0000 C   0  0  0  0  0  0  0  0  0  0  0  0
    4.2365   -0.8250    0.0000 C   0  0  0  0  0  0  0  0  0  0  0  0
    3.5220    0.4125    0.0000 C   0  0  0  0  0  0  0  0  0  0  0  0
    4.2365    0.0000    0.0000 C   0  0  0  0  0  0  0  0  0  0  0  0
    3.5220   -1.2375    0.0000 C   0  0  0  0  0  0  0  0  0  0  0  0
    2.8075    0.0000    0.0000 C   0  0  0  0  0  0  0  0  0  0  0  0
    2.8075   -0.8250    0.0000 C   0  0  0  0  0  0  0  0  0  0  0  0
    3.5220    2.0625    0.0000 C   0  0  0  0  0  0  0  0  0  0  0  0
    4.2365    2.4751    0.0000 C   0  0  0  0  0  0  0  0  0  0  0  0
    2.8075   -2.4751    0.0000 C   0  0  0  0  0  0  0  0  0  0  0  0
  1  4  2  0  0  0  0
  1  5  2  0  0  0  0
  1 18  1  0  0  0  0
  1 23  1  0  0  0  0
  2 16  2  0  0  0  0
  3 20  1  0  0  0  0
  3 25  1  0  0  0  0
  6  9  1  0  0  0  0
  6 12  1  0  0  0  0
  6 14  1  0  0  0  0
  7 13  1  0  0  0  0
  7 16  1  0  0  0  0
  8 21  1  0  0  0  0
  9 10  1  0  0  0  0
  9 13  1  0  0  0  0
 10 11  1  0  0  0  0
 11 12  1  0  0  0  0
 14 15  1  0  0  0  0
 16 17  1  0  0  0  0
 17 19  2  0  0  0  0
 17 20  1  0  0  0  0
 18 19  1  0  0  0  0
 18 21  2  0  0  0  0
 20 22  2  0  0  0  0
 21 22  1  0  0  0  0
 23 24  1  0  0  0  0
M  END
> <DRUGBANK_ID>
DB06288

> <DRUG_GROUPS>
approved; investigational

> <GENERIC_NAME>
Amisulpride

> <SYNONYMS>


> <BRANDS>
Deniban; Solian

> <CHEMICAL_FORMULA>
C17H27N3O4S

> <MOLECULAR_WEIGHT>
369.479

> <EXACT_MASS>
369.172227057

> <IUPAC_NAME>
4-amino-5-(ethanesulfonyl)-N-[(1-ethylpyrrolidin-2-yl)methyl]-2-methoxybenzamide

> <IUPAC_TRADITIONAL_NAME>
amisulpride

> <INCHI_IDENTIFIER>
InChI=1S/C17H27N3O4S/c1-4-20-8-6-7-12(20)11-19-17(21)13-9-16(25(22,23)5-2)14(18)10-15(13)24-3/h9-10,12H,4-8,11,18H2,1-3H3,(H,19,21)

> <INCHI_KEY>
InChIKey=NTJOBXMMWNYJFB-UHFFFAOYSA-N

> <SMILES>
CCN1CCCC1CNC(=O)C1=CC(=C(N)C=C1OC)S(=O)(=O)CC

> <JCHEM_ACCEPTOR_COUNT>
6

> <JCHEM_DONOR_COUNT>
2

> <JCHEM_ACIDIC_PKA>
14.03

> <JCHEM_BASIC_PKA>
7.05

> <JCHEM_PHYSIOLOGICAL_CHARGE>
1

> <ALOGPS_LOGP>
1.5

> <JCHEM_LOGP>
0.25

> <ALOGPS_LOGS>
-3.1

> <JCHEM_POLARIZABILITY>
39.82

> <JCHEM_POLAR_SURFACE_AREA>
101.73

> <JCHEM_REFRACTIVITY>
99.84

> <JCHEM_ROTATABLE_BOND_COUNT>
7

> <ALOGPS_SOLUBILITY>
2.93e-01 g/l __ 

$$$$
