
  Mrv0541 02081314252D          

 28 30  0  0  0  0            999 V2000
   19.6062   -5.0141    0.0000 C    0  0  0  0  0  0  0  0  0  0  0  0
   18.8917   -4.6016    0.0000 C    0  0  0  0  0  0  0  0  0  0  0  0
   18.8917   -3.7766    0.0000 C    0  0  0  0  0  0  0  0  0  0  0  0
   20.3206   -4.6016    0.0000 C    0  0  0  0  0  0  0  0  0  0  0  0
   20.3206   -3.7766    0.0000 C    0  0  0  0  0  0  0  0  0  0  0  0
   19.6062   -3.3641    0.0000 C    0  0  0  0  0  0  0  0  0  0  0  0
   19.6062   -5.8391    0.0000 N    0  0  0  0  0  0  0  0  0  0  0  0
   19.6062   -2.5391    0.0000 C    0  0  0  0  0  0  0  0  0  0  0  0
   18.8917   -6.2516    0.0000 C    0  0  0  0  0  0  0  0  0  0  0  0
   18.8917   -7.0766    0.0000 N    0  0  0  0  0  0  0  0  0  0  0  0
   18.1772   -7.4891    0.0000 C    0  0  0  0  0  0  0  0  0  0  0  0
   18.1772   -5.8391    0.0000 N    0  0  0  0  0  0  0  0  0  0  0  0
   17.4628   -6.2516    0.0000 C    0  0  0  0  0  0  0  0  0  0  0  0
   17.4628   -7.0766    0.0000 C    0  0  0  0  0  0  0  0  0  0  0  0
   18.1772   -8.3141    0.0000 N    0  0  0  0  0  0  0  0  0  0  0  0
   16.7483   -7.4891    0.0000 Br   0  0  0  0  0  0  0  0  0  0  0  0
   16.7483   -5.8391    0.0000 O    0  0  0  0  0  0  0  0  0  0  0  0
   16.7483   -5.0141    0.0000 C    0  0  0  0  0  0  0  0  0  0  0  0
   16.0338   -4.6016    0.0000 C    0  0  0  0  0  0  0  0  0  0  0  0
   16.0338   -3.7766    0.0000 C    0  0  0  0  0  0  0  0  0  0  0  0
   17.4628   -4.6016    0.0000 C    0  0  0  0  0  0  0  0  0  0  0  0
   17.4628   -3.7766    0.0000 C    0  0  0  0  0  0  0  0  0  0  0  0
   16.7483   -3.3641    0.0000 C    0  0  0  0  0  0  0  0  0  0  0  0
   15.3193   -5.0141    0.0000 C    0  0  0  0  0  0  0  0  0  0  0  0
   18.1772   -5.0141    0.0000 C    0  0  0  0  0  0  0  0  0  0  0  0
   16.7483   -2.5391    0.0000 C    0  0  0  0  0  0  0  0  0  0  0  0
   16.7483   -1.7141    0.0000 N    0  0  0  0  0  0  0  0  0  0  0  0
   19.6062   -1.7141    0.0000 N    0  0  0  0  0  0  0  0  0  0  0  0
  1  2  1  0  0  0  0
  2  3  2  0  0  0  0
  1  4  2  0  0  0  0
  4  5  1  0  0  0  0
  5  6  2  0  0  0  0
  6  3  1  0  0  0  0
  1  7  1  0  0  0  0
  6  8  1  0  0  0  0
  7  9  1  0  0  0  0
  9 10  1  0  0  0  0
 10 11  2  0  0  0  0
  9 12  2  0  0  0  0
 12 13  1  0  0  0  0
 13 14  2  0  0  0  0
 14 11  1  0  0  0  0
 11 15  1  0  0  0  0
 14 16  1  0  0  0  0
 13 17  1  0  0  0  0
 17 18  1  0  0  0  0
 18 19  1  0  0  0  0
 19 20  2  0  0  0  0
 18 21  2  0  0  0  0
 21 22  1  0  0  0  0
 22 23  2  0  0  0  0
 23 20  1  0  0  0  0
 19 24  1  0  0  0  0
 21 25  1  0  0  0  0
 23 26  1  0  0  0  0
 26 27  3  0  0  0  0
  8 28  3  0  0  0  0
M  END
> <DRUGBANK_ID>
DB06414

> <DRUG_GROUPS>
approved

> <GENERIC_NAME>
Etravirine

> <BRANDS>
Intelence

> <CHEMICAL_FORMULA>
C20H15BrN6O

> <MOLECULAR_WEIGHT>
435.277

> <EXACT_MASS>
434.049071779

> <IUPAC_NAME>
4-({6-amino-5-bromo-2-[(4-cyanophenyl)amino]pyrimidin-4-yl}oxy)-3,5-dimethylbenzonitrile

> <IUPAC_TRADITIONAL_NAME>
etravirine

> <INCHI_IDENTIFIER>
InChI=1S/C20H15BrN6O/c1-11-7-14(10-23)8-12(2)17(11)28-19-16(21)18(24)26-20(27-19)25-15-5-3-13(9-22)4-6-15/h3-8H,1-2H3,(H3,24,25,26,27)

> <INCHI_KEY>
InChIKey=PYGWGZALEOIKDF-UHFFFAOYSA-N

> <SMILES>
CC1=CC(=CC(C)=C1OC1=C(Br)C(N)=NC(NC2=CC=C(C=C2)C#N)=N1)C#N

> <JCHEM_ACCEPTOR_COUNT>
6

> <JCHEM_DONOR_COUNT>
2

> <JCHEM_ACIDIC_PKA>
12.49

> <JCHEM_BASIC_PKA>
4.13

> <JCHEM_PHYSIOLOGICAL_CHARGE>
0

> <ALOGPS_LOGP>
3.67

> <JCHEM_LOGP>
5.54

> <ALOGPS_LOGS>
-4.4

> <JCHEM_POLARIZABILITY>
41.07

> <JCHEM_POLAR_SURFACE_AREA>
120.64

> <JCHEM_REFRACTIVITY>
111.87

> <JCHEM_ROTATABLE_BOND_COUNT>
4

> <ALOGPS_SOLUBILITY>
1.69e-02 g/l __ 

$$$$
