
  Mrv0541 02241214212D          

 56 53  0  0  0  0            999 V2000
   -3.0397   -1.6243    0.0000 C    0  0  0  0  0  0  0  0  0  0  0  0
   -3.8043   -1.3143    0.0000 C    0  0  0  0  0  0  0  0  0  0  0  0
   -3.9181   -0.4972    0.0000 C    0  0  0  0  0  0  0  0  0  0  0  0
   -3.2674    0.0099    0.0000 C    0  0  0  0  0  0  0  0  0  0  0  0
   -2.5028   -0.3000    0.0000 C    0  0  0  0  0  0  0  0  0  0  0  0
   -2.3890   -1.1171    0.0000 C    0  0  0  0  0  0  0  0  0  0  0  0
   -1.6581   -1.5840    0.0000 O    0  0  0  0  0  0  0  0  0  0  0  0
   -0.7760   -1.7175    0.0000 P    0  0  0  0  0  0  0  0  0  0  0  0
   -0.7655   -0.8853    0.0000 O    0  0  0  0  0  0  0  0  0  0  0  0
   -0.7767   -2.5739    0.0000 O    0  5  0  0  0  0  0  0  0  0  0  0
    0.0793   -1.5317    0.0000 O    0  0  0  0  0  0  0  0  0  0  0  0
    0.7351   -0.9530    0.0000 C    0  0  0  0  0  0  0  0  0  0  0  0
    1.0958   -0.1743    0.0000 C    0  0  0  0  0  0  0  0  0  0  0  0
    1.9482   -0.3045    0.0000 C    0  0  0  0  0  0  0  0  0  0  0  0
    2.7931   -0.1729    0.0000 N    0  0  0  0  0  0  0  0  0  0  0  0
    3.4943   -0.6548    0.0000 C    0  0  0  0  0  0  0  0  0  0  0  0
    4.3518   -0.6258    0.0000 C    0  0  0  0  0  0  0  0  0  0  0  0
    5.1783   -0.3265    0.0000 N    0  0  0  0  0  0  0  0  0  0  0  0
    5.5804    0.4272    0.0000 C    0  0  0  0  0  0  0  0  0  0  0  0
    6.0221    1.1650    0.0000 C    0  0  0  0  0  0  0  0  0  0  0  0
    5.9073    1.9998    0.0000 O    0  0  0  0  0  0  0  0  0  0  0  0
    6.8718    1.2168    0.0000 O    0  5  0  0  0  0  0  0  0  0  0  0
    5.6440   -1.0448    0.0000 C    0  0  0  0  0  0  0  0  0  0  0  0
    6.1640   -1.7175    0.0000 C    0  0  0  0  0  0  0  0  0  0  0  0
    6.9742   -1.5199    0.0000 O    0  0  0  0  0  0  0  0  0  0  0  0
    5.9030   -2.5162    0.0000 O    0  5  0  0  0  0  0  0  0  0  0  0
    3.0502    0.6512    0.0000 C    0  0  0  0  0  0  0  0  0  0  0  0
    3.4506    1.4005    0.0000 C    0  0  0  0  0  0  0  0  0  0  0  0
    4.2416    1.6881    0.0000 O    0  0  0  0  0  0  0  0  0  0  0  0
    3.3672    2.2398    0.0000 O    0  5  0  0  0  0  0  0  0  0  0  0
    0.6689    0.6011    0.0000 N    0  0  0  0  0  0  0  0  0  0  0  0
    0.9688    1.4047    0.0000 C    0  0  0  0  0  0  0  0  0  0  0  0
    1.2403    2.2230    0.0000 C    0  0  0  0  0  0  0  0  0  0  0  0
    1.2182    3.0643    0.0000 O    0  0  0  0  0  0  0  0  0  0  0  0
    2.0617    2.2626    0.0000 O    0  5  0  0  0  0  0  0  0  0  0  0
   -0.1577    0.8322    0.0000 C    0  0  0  0  0  0  0  0  0  0  0  0
   -0.8608    1.3336    0.0000 C    0  0  0  0  0  0  0  0  0  0  0  0
   -1.1166    2.1328    0.0000 O    0  0  0  0  0  0  0  0  0  0  0  0
   -1.5567    0.8935    0.0000 O    0  5  0  0  0  0  0  0  0  0  0  0
   -4.6722   -0.8318    0.0000 C    0  0  0  0  0  0  0  0  0  0  0  0
   -4.7594   -1.6522    0.0000 C    0  0  0  0  0  0  0  0  0  0  0  0
   -5.5135   -1.9869    0.0000 C    0  0  0  0  0  0  0  0  0  0  0  0
   -6.1803   -1.5012    0.0000 C    0  0  0  0  0  0  0  0  0  0  0  0
   -6.0931   -0.6808    0.0000 C    0  0  0  0  0  0  0  0  0  0  0  0
   -5.3390   -0.3461    0.0000 C    0  0  0  0  0  0  0  0  0  0  0  0
   -4.4476    0.1354    0.0000 C    0  0  0  0  0  0  0  0  0  0  0  0
   -5.2603   -0.0069    0.0000 C    0  0  0  0  0  0  0  0  0  0  0  0
   -5.7898    0.6258    0.0000 C    0  0  0  0  0  0  0  0  0  0  0  0
   -5.5067    1.4007    0.0000 C    0  0  0  0  0  0  0  0  0  0  0  0
   -4.6941    1.5430    0.0000 C    0  0  0  0  0  0  0  0  0  0  0  0
   -4.1645    0.9103    0.0000 C    0  0  0  0  0  0  0  0  0  0  0  0
    9.2135    0.0000    0.0000 O    0  0  0  0  0  0  0  0  0  0  0  0
   11.4528    0.0000    0.0000 Na   0  3  0  0  0  0  0  0  0  0  0  0
    0.0000   -4.2239    0.0000 Na   0  3  0  0  0  0  0  0  0  0  0  0
    1.0018   -4.2239    0.0000 Na   0  3  0  0  0  0  0  0  0  0  0  0
    2.1214   -4.2239    0.0000 Gd   0  1  0  0  0  0  0  0  0  0  0  0
  1  2  1  0  0  0  0
  2  3  1  0  0  0  0
  3  4  1  0  0  0  0
  4  5  1  0  0  0  0
  5  6  1  0  0  0  0
  1  6  1  0  0  0  0
  6  7  1  0  0  0  0
  7  8  1  0  0  0  0
  8  9  2  0  0  0  0
  8 10  1  0  0  0  0
  8 11  1  0  0  0  0
 11 12  1  0  0  0  0
 12 13  1  0  0  0  0
 13 14  1  0  0  0  0
 14 15  1  0  0  0  0
 15 16  1  0  0  0  0
 16 17  1  0  0  0  0
 17 18  1  0  0  0  0
 18 19  1  0  0  0  0
 19 20  1  0  0  0  0
 20 21  2  0  0  0  0
 20 22  1  0  0  0  0
 18 23  1  0  0  0  0
 23 24  1  0  0  0  0
 24 25  2  0  0  0  0
 24 26  1  0  0  0  0
 15 27  1  0  0  0  0
 27 28  1  0  0  0  0
 28 29  2  0  0  0  0
 28 30  1  0  0  0  0
 13 31  1  0  0  0  0
 31 32  1  0  0  0  0
 32 33  1  0  0  0  0
 33 34  2  0  0  0  0
 33 35  1  0  0  0  0
 31 36  1  0  0  0  0
 36 37  1  0  0  0  0
 37 38  2  0  0  0  0
 37 39  1  0  0  0  0
  3 40  1  0  0  0  0
 40 41  2  0  0  0  0
 41 42  1  0  0  0  0
 42 43  2  0  0  0  0
 43 44  1  0  0  0  0
 44 45  2  0  0  0  0
 40 45  1  0  0  0  0
  3 46  1  0  0  0  0
 46 47  2  0  0  0  0
 47 48  1  0  0  0  0
 48 49  2  0  0  0  0
 49 50  1  0  0  0  0
 50 51  2  0  0  0  0
 46 51  1  0  0  0  0
M  END
> <DRUGBANK_ID>
DB06705

> <DRUG_GROUPS>
approved

> <GENERIC_NAME>
Gadofosveset trisodium

> <SYNONYMS>
Ablavar; Gadofosveset; MS-325 ; Vasovist

> <BRANDS>
Ablavar; Vasovist

> <CHEMICAL_FORMULA>
C33H40GdN3Na3O15P

> <MOLECULAR_WEIGHT>
975.87

> <EXACT_MASS>
976.113113695

> <IUPAC_NAME>
gadolinium(3+) ion trisodium 2-{[1-({2-[bis(carboxylatomethyl)amino]ethyl}(carboxylatomethyl)amino)-3-[(4,4-diphenylcyclohexyl phosphonato)oxy]propan-2-yl](carboxylatomethyl)amino}acetate hydrate

> <IUPAC_TRADITIONAL_NAME>
gadolinium(3+) trisodium 2-{[1-({2-[bis(carboxylatomethyl)amino]ethyl}(carboxylatomethyl)amino)-3-[(4,4-diphenylcyclohexyl phosphonato)oxy]propan-2-yl](carboxylatomethyl)amino}acetate hydrate

> <INCHI_IDENTIFIER>
InChI=1S/C33H44N3O14P.Gd.3Na.H2O/c37-28(38)18-34(15-16-35(19-29(39)40)20-30(41)42)17-26(36(21-31(43)44)22-32(45)46)23-49-51(47,48)50-27-11-13-33(14-12-27,24-7-3-1-4-8-24)25-9-5-2-6-10-25;;;;;/h1-10,26-27H,11-23H2,(H,37,38)(H,39,40)(H,41,42)(H,43,44)(H,45,46)(H,47,48);;;;;1H2/q;+3;3*+1;/p-6

> <INCHI_KEY>
InChIKey=PIZALBORPSCYJU-UHFFFAOYSA-H

> <SMILES>
O.[Na+].[Na+].[Na+].[Gd+3].[O-]C(=O)CN(CCN(CC([O-])=O)CC([O-])=O)CC(COP([O-])(=O)OC1CCC(CC1)(C1=CC=CC=C1)C1=CC=CC=C1)N(CC([O-])=O)CC([O-])=O

> <JCHEM_ACCEPTOR_COUNT>
15

> <JCHEM_DONOR_COUNT>
0

> <JCHEM_ACIDIC_PKA>
0.78

> <JCHEM_BASIC_PKA>
9.67

> <JCHEM_PHYSIOLOGICAL_CHARGE>
-5

> <JCHEM_LOGP>
-1.2

> <JCHEM_POLARIZABILITY>
69.9

> <JCHEM_POLAR_SURFACE_AREA>
268.96

> <JCHEM_REFRACTIVITY>
241.55

> <JCHEM_ROTATABLE_BOND_COUNT>
23 __ 

$$$$
