
  Mrv0541 02241212482D          

 12 12  0  0  0  0            999 V2000
    1.4289    0.0000    0.0000 C   0  0  0  0  0  0  0  0  0  0  0  0
    0.7145   -0.4125    0.0000 C   0  0  0  0  0  0  0  0  0  0  0  0
    0.0000    0.0000    0.0000 C   0  0  0  0  0  0  0  0  0  0  0  0
    0.0000    0.8250    0.0000 C   0  0  0  0  0  0  0  0  0  0  0  0
    0.7145    1.2375    0.0000 C   0  0  0  0  0  0  0  0  0  0  0  0
    1.4289    0.8250    0.0000 C   0  0  0  0  0  0  0  0  0  0  0  0
    0.7145    2.0625    0.0000 I   0  0  0  0  0  0  0  0  0  0  0  0
   -0.7145   -0.4125    0.0000 C   0  0  0  0  0  0  0  0  0  0  0  0
   -0.7145   -1.2375    0.0000 N   0  0  0  0  0  0  0  0  0  0  0  0
   -1.4289   -1.6500    0.0000 C   0  0  0  0  0  0  0  0  0  0  0  0
   -1.4289   -2.4750    0.0000 N   0  0  0  0  0  0  0  0  0  0  0  0
   -2.1434   -1.2375    0.0000 N   0  0  0  0  0  0  0  0  0  0  0  0
  1  2  2  0  0  0  0
  2  3  1  0  0  0  0
  3  4  2  0  0  0  0
  4  5  1  0  0  0  0
  5  6  2  0  0  0  0
  1  6  1  0  0  0  0
  5  7  1  0  0  0  0
  3  8  1  0  0  0  0
  8  9  1  0  0  0  0
  9 10  2  0  0  0  0
 10 11  1  0  0  0  0
 10 12  1  0  0  0  0
M  END
> <DRUGBANK_ID>
DB06704

> <DRUG_GROUPS>
approved

> <GENERIC_NAME>
Iobenguane

> <SYNONYMS>
Metaiodobenzylguanidine; mIBG

> <BRANDS>
AdreView 

> <CHEMICAL_FORMULA>
C8H10IN3

> <MOLECULAR_WEIGHT>
275.0896

> <EXACT_MASS>
274.991940755

> <IUPAC_NAME>
2-[(3-iodophenyl)methyl]guanidine

> <IUPAC_TRADITIONAL_NAME>
2-[(3-iodophenyl)methyl]guanidine

> <INCHI_IDENTIFIER>
InChI=1S/C8H10IN3/c9-7-3-1-2-6(4-7)5-12-8(10)11/h1-4H,5H2,(H4,10,11,12)

> <INCHI_KEY>
InChIKey=PDWUPXJEEYOOTR-UHFFFAOYSA-N

> <SMILES>
NC(N)=NCC1=CC(I)=CC=C1

> <JCHEM_ACCEPTOR_COUNT>
3

> <JCHEM_DONOR_COUNT>
2

> <JCHEM_BASIC_PKA>
11.27

> <JCHEM_PHYSIOLOGICAL_CHARGE>
1

> <ALOGPS_LOGP>
1.53

> <JCHEM_LOGP>
1.64

> <ALOGPS_LOGS>
-3.5

> <JCHEM_POLARIZABILITY>
21.93

> <JCHEM_POLAR_SURFACE_AREA>
64.4

> <JCHEM_REFRACTIVITY>
58.32

> <JCHEM_ROTATABLE_BOND_COUNT>
2

> <ALOGPS_SOLUBILITY>
8.78e-02 g/l __ 

$$$$
