
  Mrv0541 04191212182D          

 24 27  0  0  1  0            999 V2000
   16.4957  -10.5233    0.0000 C   0  0  2  0  0  0  0  0  0  0  0  0
   15.7811  -10.9341    0.0000 C   0  0  1  0  0  0  0  0  0  0  0  0
   17.2171  -10.9410    0.0000 C   0  0  2  0  0  0  0  0  0  0  0  0
   16.4992   -9.7017    0.0000 C   0  0  2  0  0  0  0  0  0  0  0  0
   15.5532  -10.4473    0.0000 O   0  0  0  0  0  0  0  0  0  0  0  0
   15.0078  -10.6303    0.0000 O   0  0  0  0  0  0  0  0  0  0  0  0
   15.7846  -11.7695    0.0000 O   0  0  0  0  0  0  0  0  0  0  0  0
   17.2171  -11.7695    0.0000 C   0  0  2  0  0  0  0  0  0  0  0  0
   17.9282  -10.5267    0.0000 C   0  0  0  0  0  0  0  0  0  0  0  0
   17.2171   -9.2874    0.0000 C   0  0  1  0  0  0  0  0  0  0  0  0
   16.0573   -9.0942    0.0000 C   0  0  0  0  0  0  0  0  0  0  0  0
   15.5567   -9.6223    0.0000 O   0  0  0  0  0  0  0  0  0  0  0  0
   14.7627   -9.8397    0.0000 C   0  0  2  0  0  0  0  0  0  0  0  0
   16.4992  -12.1837    0.0000 C   0  0  1  0  0  0  0  0  0  0  0  0
   17.9317  -12.1803    0.0000 C   0  0  0  0  0  0  0  0  0  0  0  0
   17.9282   -9.7017    0.0000 C   0  0  0  0  0  0  0  0  0  0  0  0
   17.2171   -8.4625    0.0000 C   0  0  0  0  0  0  0  0  0  0  0  0
   15.2288   -9.0769    0.0000 C   0  0  0  0  0  0  0  0  0  0  0  0
   13.9446   -9.8397    0.0000 C   0  0  0  0  0  0  0  0  0  0  0  0
   16.5026  -13.0087    0.0000 O   0  0  0  0  0  0  0  0  0  0  0  0
   15.0596  -11.3414    0.0000 H   0  0  0  0  0  0  0  0  0  0  0  0
   17.9248  -11.3518    0.0000 H   0  0  0  0  0  0  0  0  0  0  0  0
   16.4957   -8.8766    0.0000 H   0  0  0  0  0  0  0  0  0  0  0  0
   15.7806  -13.4294    0.0000 C   0  0  0  0  0  0  0  0  0  0  0  0
  1  2  1  0  0  0  0
  1  3  1  0  0  0  0
  1  4  1  0  0  0  0
  1  5  1  6  0  0  0
  2  6  1  0  0  0  0
  2  7  1  0  0  0  0
  3  8  1  0  0  0  0
  3  9  1  0  0  0  0
  4 10  1  0  0  0  0
  4 11  1  0  0  0  0
  5 12  1  0  0  0  0
  6 13  1  0  0  0  0
  7 14  1  0  0  0  0
  8 15  1  1  0  0  0
  9 16  1  0  0  0  0
 10 17  1  6  0  0  0
 11 18  1  0  0  0  0
 13 19  1  0  0  0  0
 14 20  1  1  0  0  0
  8 14  1  0  0  0  0
 10 16  1  0  0  0  0
 13 12  1  6  0  0  0
 13 18  1  0  0  0  0
  2 21  1  1  0  0  0
  3 22  1  6  0  0  0
  4 23  1  6  0  0  0
 20 24  1  0  0  0  0
M  END
> <DRUGBANK_ID>
DB06697

> <DRUG_GROUPS>
approved

> <GENERIC_NAME>
Artemether

> <SYNONYMS>
Dihydroartemisinin methyl ether; Dihydroqinghaosu methyl ether; SM-224

> <CHEMICAL_FORMULA>
C16H26O5

> <MOLECULAR_WEIGHT>
298.3746

> <EXACT_MASS>
298.178023942

> <IUPAC_NAME>
(1R,4S,5R,8S,9R,10S,12R,13R)-10-methoxy-1,5,9-trimethyl-11,14,15,16-tetraoxatetracyclo[10.3.1.0^{4,13}.0^{8,13}]hexadecane

> <IUPAC_TRADITIONAL_NAME>
(1R,4S,5R,8S,9R,10S,12R,13R)-10-methoxy-1,5,9-trimethyl-11,14,15,16-tetraoxatetracyclo[10.3.1.0^{4,13}.0^{8,13}]hexadecane

> <INCHI_IDENTIFIER>
InChI=1S/C16H26O5/c1-9-5-6-12-10(2)13(17-4)18-14-16(12)11(9)7-8-15(3,19-14)20-21-16/h9-14H,5-8H2,1-4H3/t9-,10-,11+,12+,13+,14-,15-,16-/m1/s1

> <INCHI_KEY>
InChIKey=SXYIRMFQILZOAM-HVNFFKDJSA-N

> <SMILES>
[H][C@@]12CC[C@@H](C)[C@]3([H])CC[C@@]4(C)OO[C@@]13[C@]([H])(O[C@H](OC)[C@@H]2C)O4

> <JCHEM_ACCEPTOR_COUNT>
5

> <JCHEM_DONOR_COUNT>
0

> <JCHEM_BASIC_PKA>
-3.9

> <JCHEM_PHYSIOLOGICAL_CHARGE>
0

> <ALOGPS_LOGP>
3.02

> <JCHEM_LOGP>
3.48

> <ALOGPS_LOGS>
-2.8

> <JCHEM_POLARIZABILITY>
32.12

> <JCHEM_POLAR_SURFACE_AREA>
46.15

> <JCHEM_REFRACTIVITY>
74.66

> <JCHEM_ROTATABLE_BOND_COUNT>
1

> <ALOGPS_SOLUBILITY>
4.57e-01 g/l __ 

$$$$
