
  Mrv0541 02231218142D          

 31 35  0  0  0  0            999 V2000
    1.6500   -0.3414    0.0000 Cl   0  0  0  0  0  0  0  0  0  0  0  0
    5.5992   -4.9670    0.0000 F    0  0  0  0  0  0  0  0  0  0  0  0
    8.1145    3.3560    0.0000 O    0  0  0  0  0  0  0  0  0  0  0  0
    5.3430    1.8501    0.0000 N    0  0  0  0  0  0  0  0  0  0  0  0
    4.5741   -1.8304    0.0000 N    0  0  0  0  0  0  0  0  0  0  0  0
    6.6628    3.5885    0.0000 N    0  0  0  0  0  0  0  0  0  0  0  0
    7.4493    4.6672    0.0000 N    0  0  0  0  0  0  0  0  0  0  0  0
    4.8304    0.2817    0.0000 C    0  0  0  0  0  0  0  0  0  0  0  0
    4.2794    0.8957    0.0000 C    0  0  0  0  0  0  0  0  0  0  0  0
    5.6377    0.4518    0.0000 C    0  0  0  0  0  0  0  0  0  0  0  0
    4.5357    1.6799    0.0000 C    0  0  0  0  0  0  0  0  0  0  0  0
    5.8939    1.2360    0.0000 C    0  0  0  0  0  0  0  0  0  0  0  0
    4.5741   -0.5025    0.0000 C    0  0  0  0  0  0  0  0  0  0  0  0
    5.5992    2.6343    0.0000 C    0  0  0  0  0  0  0  0  0  0  0  0
    3.7935   -0.7539    0.0000 C    0  0  0  0  0  0  0  0  0  0  0  0
    6.4066    2.8044    0.0000 C    0  0  0  0  0  0  0  0  0  0  0  0
    5.0556   -1.1664    0.0000 C    0  0  0  0  0  0  0  0  0  0  0  0
    3.7935   -1.5789    0.0000 C    0  0  0  0  0  0  0  0  0  0  0  0
    6.1791    4.2569    0.0000 C    0  0  0  0  0  0  0  0  0  0  0  0
    3.0790   -0.3414    0.0000 C    0  0  0  0  0  0  0  0  0  0  0  0
    6.6652    4.9235    0.0000 C    0  0  0  0  0  0  0  0  0  0  0  0
    3.0790   -1.9914    0.0000 C    0  0  0  0  0  0  0  0  0  0  0  0
    4.8304   -2.6145    0.0000 C    0  0  0  0  0  0  0  0  0  0  0  0
    7.4479    3.8421    0.0000 C    0  0  0  0  0  0  0  0  0  0  0  0
    2.3645   -0.7539    0.0000 C    0  0  0  0  0  0  0  0  0  0  0  0
    2.3645   -1.5789    0.0000 C    0  0  0  0  0  0  0  0  0  0  0  0
    5.6377   -2.7846    0.0000 C    0  0  0  0  0  0  0  0  0  0  0  0
    4.2794   -3.2286    0.0000 C    0  0  0  0  0  0  0  0  0  0  0  0
    5.8939   -3.5688    0.0000 C    0  0  0  0  0  0  0  0  0  0  0  0
    4.5357   -4.0128    0.0000 C    0  0  0  0  0  0  0  0  0  0  0  0
    5.3430   -4.1829    0.0000 C    0  0  0  0  0  0  0  0  0  0  0  0
  1 25  1  0  0  0  0
  2 31  1  0  0  0  0
  3 24  2  0  0  0  0
  4 11  1  0  0  0  0
  4 12  1  0  0  0  0
  4 14  1  0  0  0  0
  5 17  1  0  0  0  0
  5 18  1  0  0  0  0
  5 23  1  0  0  0  0
  6 16  1  0  0  0  0
  6 19  1  0  0  0  0
  6 24  1  0  0  0  0
  7 21  1  0  0  0  0
  7 24  1  0  0  0  0
  8  9  1  0  0  0  0
  8 10  1  0  0  0  0
  8 13  1  0  0  0  0
  9 11  1  0  0  0  0
 10 12  1  0  0  0  0
 13 15  1  0  0  0  0
 13 17  2  0  0  0  0
 14 16  1  0  0  0  0
 15 18  2  0  0  0  0
 15 20  1  0  0  0  0
 18 22  1  0  0  0  0
 19 21  1  0  0  0  0
 20 25  2  0  0  0  0
 22 26  2  0  0  0  0
 23 27  2  0  0  0  0
 23 28  1  0  0  0  0
 25 26  1  0  0  0  0
 27 29  1  0  0  0  0
 28 30  2  0  0  0  0
 29 31  2  0  0  0  0
 30 31  1  0  0  0  0
M  END
> <DRUGBANK_ID>
DB06144

> <DRUG_GROUPS>
approved; withdrawn

> <GENERIC_NAME>
Sertindole

> <SYNONYMS>
Sertindol; Sertindolum

> <BRANDS>
Serdolect; Serlect

> <CHEMICAL_FORMULA>
C24H26ClFN4O

> <MOLECULAR_WEIGHT>
440.941

> <EXACT_MASS>
440.177917386

> <IUPAC_NAME>
1-(2-{4-[5-chloro-1-(4-fluorophenyl)-1H-indol-3-yl]piperidin-1-yl}ethyl)imidazolidin-2-one

> <IUPAC_TRADITIONAL_NAME>
sertindole

> <INCHI_IDENTIFIER>
InChI=1S/C24H26ClFN4O/c25-18-1-6-23-21(15-18)22(16-30(23)20-4-2-19(26)3-5-20)17-7-10-28(11-8-17)13-14-29-12-9-27-24(29)31/h1-6,15-17H,7-14H2,(H,27,31)

> <INCHI_KEY>
InChIKey=GZKLJWGUPQBVJQ-UHFFFAOYSA-N

> <SMILES>
FC1=CC=C(C=C1)N1C=C(C2CCN(CCN3CCNC3=O)CC2)C2=C1C=CC(Cl)=C2

> <JCHEM_ACCEPTOR_COUNT>
2

> <JCHEM_DONOR_COUNT>
1

> <JCHEM_ACIDIC_PKA>
14.36

> <JCHEM_BASIC_PKA>
8.59

> <JCHEM_PHYSIOLOGICAL_CHARGE>
1

> <ALOGPS_LOGP>
4.29

> <JCHEM_LOGP>
3.77

> <ALOGPS_LOGS>
-4.7

> <JCHEM_POLARIZABILITY>
47.17

> <JCHEM_POLAR_SURFACE_AREA>
40.51

> <JCHEM_REFRACTIVITY>
131.77

> <JCHEM_ROTATABLE_BOND_COUNT>
5

> <ALOGPS_SOLUBILITY>
9.63e-03 g/l __ 

$$$$
