0MO
  Mrv0541 02241213012D          

 21 22  0  0  0  0            999 V2000
    3.7234   -0.0816    0.0000 C   0  0  0  0  0  0  0  0  0  0  0  0
   -1.5798   -2.1762    0.0000 N   0  0  0  0  0  0  0  0  0  0  0  0
    0.8655   -0.0816    0.0000 O   0  0  0  0  0  0  0  0  0  0  0  0
    3.0089    0.3309    0.0000 C   0  0  0  0  0  0  0  0  0  0  0  0
   -2.6598   -1.3915    0.0000 N   0  0  0  0  0  0  0  0  0  0  0  0
    0.8655    1.5684    0.0000 O   0  0  0  0  0  0  0  0  0  0  0  0
    2.2945   -0.0816    0.0000 C   0  0  0  0  0  0  0  0  0  0  0  0
   -2.8898   -2.8436    0.0000 O   0  0  0  0  0  0  0  0  0  0  0  0
    1.5800    0.3309    0.0000 C   0  0  0  0  0  0  0  0  0  0  0  0
    0.1511    0.3309    0.0000 C   0  0  0  0  0  0  0  0  0  0  0  0
    0.1511    1.1559    0.0000 C   0  0  0  0  0  0  0  0  0  0  0  0
    0.8655    2.3934    0.0000 C   0  0  0  0  0  0  0  0  0  0  0  0
   -0.5634    1.5684    0.0000 C   0  0  0  0  0  0  0  0  0  0  0  0
   -1.2779    1.1559    0.0000 C   0  0  0  0  0  0  0  0  0  0  0  0
   -1.2779    0.3309    0.0000 C   0  0  0  0  0  0  0  0  0  0  0  0
   -1.9923   -0.0816    0.0000 C   0  0  0  0  0  0  0  0  0  0  0  0
   -1.9923   -0.9066    0.0000 C   0  0  2  0  0  0  0  0  0  0  0  0
   -1.3249   -1.3915    0.0000 C   0  0  0  0  0  0  0  0  0  0  0  0
   -2.4048   -2.1762    0.0000 C   0  0  0  0  0  0  0  0  0  0  0  0
   -0.5634   -0.0816    0.0000 C   0  0  0  0  0  0  0  0  0  0  0  0
   -2.5126   -0.6415    0.0000 H   0  0  0  0  0  0  0  0  0  0  0  0
  2 19  1  0  0  0  0
  3 10  1  0  0  0  0
  3  9  1  0  0  0  0
  4  1  1  0  0  0  0
  4  7  1  0  0  0  0
  5 19  1  0  0  0  0
  6 11  1  0  0  0  0
  7  9  1  0  0  0  0
 10 20  1  0  0  0  0
 11 10  2  0  0  0  0
 11 13  1  0  0  0  0
 12  6  1  0  0  0  0
 13 14  2  0  0  0  0
 14 15  1  0  0  0  0
 15 16  1  0  0  0  0
 17 16  1  6  0  0  0
 17  5  1  0  0  0  0
 17 18  1  0  0  0  0
 17 21  1  1  0  0  0
 18  2  1  0  0  0  0
 19  8  2  0  0  0  0
 20 15  2  0  0  0  0
M  END
> <DRUGBANK_ID>
DB06842

> <DRUG_GROUPS>
experimental

> <GENERIC_NAME>
(4R)-4-(3-butoxy-4-methoxybenzyl)imidazolidin-2-one

> <CHEMICAL_FORMULA>
C15H22N2O3

> <MOLECULAR_WEIGHT>
278.3468

> <EXACT_MASS>
278.16304258

> <IUPAC_NAME>
(4R)-4-[(3-butoxy-4-methoxyphenyl)methyl]imidazolidin-2-one

> <IUPAC_TRADITIONAL_NAME>
(4R)-4-[(3-butoxy-4-methoxyphenyl)methyl]imidazolidin-2-one

> <INCHI_IDENTIFIER>
InChI=1S/C15H22N2O3/c1-3-4-7-20-14-9-11(5-6-13(14)19-2)8-12-10-16-15(18)17-12/h5-6,9,12H,3-4,7-8,10H2,1-2H3,(H2,16,17,18)/t12-/m1/s1

> <INCHI_KEY>
InChIKey=PDMUULPVBYQBBK-GFCCVEGCSA-N

> <SMILES>
[H][C@@]1(CC2=CC(OCCCC)=C(OC)C=C2)CNC(=O)N1

> <JCHEM_ACCEPTOR_COUNT>
3

> <JCHEM_DONOR_COUNT>
2

> <JCHEM_ACIDIC_PKA>
13.35

> <JCHEM_BASIC_PKA>
-2.2

> <JCHEM_PHYSIOLOGICAL_CHARGE>
0

> <ALOGPS_LOGP>
1.94

> <JCHEM_LOGP>
1.99

> <ALOGPS_LOGS>
-3

> <JCHEM_POLARIZABILITY>
30.9

> <JCHEM_POLAR_SURFACE_AREA>
59.59

> <JCHEM_REFRACTIVITY>
76.8

> <JCHEM_ROTATABLE_BOND_COUNT>
7

> <ALOGPS_SOLUBILITY>
2.88e-01 g/l __ 

$$$$
