
  Mrv0541 01011415462D          

 55 61  0  0  0  0            999 V2000
   -2.8348   -0.7598    0.0000 C   0  0  0  0  0  0  0  0  0  0  0  0
   -3.5492   -1.1723    0.0000 C   0  0  0  0  0  0  0  0  0  0  0  0
   -3.5492   -1.9973    0.0000 C   0  0  0  0  0  0  0  0  0  0  0  0
   -2.8348   -2.4098    0.0000 C   0  0  0  0  0  0  0  0  0  0  0  0
   -2.1203   -1.9973    0.0000 C   0  0  0  0  0  0  0  0  0  0  0  0
   -2.1203   -1.1723    0.0000 C   0  0  0  0  0  0  0  0  0  0  0  0
   -1.4058   -2.4098    0.0000 N   0  0  0  0  0  0  0  0  0  0  0  0
   -0.6913   -1.9972    0.0000 C   0  0  0  0  0  0  0  0  0  0  0  0
   -0.6913   -1.1722    0.0000 C   0  0  0  0  0  0  0  0  0  0  0  0
   -1.4058   -0.7598    0.0000 C   0  0  0  0  0  0  0  0  0  0  0  0
    0.6905   -1.9248    0.0000 N   0  0  0  0  0  0  0  0  0  0  0  0
    0.0230   -2.4097    0.0000 C   0  0  0  0  0  0  0  0  0  0  0  0
    0.2780   -3.1943    0.0000 S   0  0  0  0  0  0  0  0  0  0  0  0
    1.1030   -3.1943    0.0000 C   0  0  0  0  0  0  0  0  0  0  0  0
    1.3579   -2.4097    0.0000 C   0  0  0  0  0  0  0  0  0  0  0  0
   -2.8348   -3.2348    0.0000 C   0  0  0  0  0  0  0  0  0  0  0  0
   -4.2637   -2.4098    0.0000 O   0  0  0  0  0  0  0  0  0  0  0  0
   -4.9782   -1.9973    0.0000 C   0  0  0  0  0  0  0  0  0  0  0  0
   -1.4058    0.0651    0.0000 O   0  0  0  0  0  0  0  0  0  0  0  0
   -0.0634    1.5352    0.0000 C   0  0  2  0  0  0  0  0  0  0  0  0
   -0.8480    1.2803    0.0000 C   0  0  0  0  0  0  0  0  0  0  0  0
   -0.8480    0.4553    0.0000 C   0  0  0  0  0  0  0  0  0  0  0  0
   -0.0634    0.2004    0.0000 C   0  0  0  0  0  0  0  0  0  0  0  0
    0.4214    0.8678    0.0000 C   0  0  1  0  0  0  0  0  0  0  0  0
    0.1915    2.3198    0.0000 C   0  0  0  0  0  0  0  0  0  0  0  0
    1.2464    0.8678    0.0000 C   0  0  0  0  0  0  0  0  0  0  0  0
    1.4804    0.1979    0.0000 O   0  0  0  0  0  0  0  0  0  0  0  0
    1.6589    1.5822    0.0000 N   0  0  0  0  0  0  0  0  0  0  0  0
   -0.3605    2.9329    0.0000 N   0  0  0  0  0  0  0  0  0  0  0  0
    0.9984    2.4914    0.0000 O   0  0  0  0  0  0  0  0  0  0  0  0
    2.4839    1.5822    0.0000 C   0  0  1  0  0  0  0  0  0  0  0  0
    2.5702    0.7617    0.0000 C   0  0  0  0  0  0  0  0  0  0  0  0
    3.3171    0.4113    0.0000 N   0  0  0  0  0  0  0  0  0  0  0  0
    1.9641    0.3893    0.0000 O   0  0  0  0  0  0  0  0  0  0  0  0
    4.0315    0.8238    0.0000 S   0  0  0  0  0  0  0  0  0  0  0  0
    4.5836    0.2107    0.0000 O   0  0  0  0  0  0  0  0  0  0  0  0
    4.0315    1.6488    0.0000 O   0  0  0  0  0  0  0  0  0  0  0  0
    4.8017    1.1195    0.0000 C   0  0  0  0  0  0  0  0  0  0  0  0
    3.0360    2.1953    0.0000 C   0  0  2  0  0  0  0  0  0  0  0  0
    3.3715    1.4416    0.0000 C   0  0  0  0  0  0  0  0  0  0  0  0
    3.1650    3.0102    0.0000 C   0  0  0  0  0  0  0  0  0  0  0  0
    2.5239    3.5294    0.0000 C   0  0  0  0  0  0  0  0  0  0  0  0
    1.6989    3.5294    0.0000 C   0  0  0  0  0  0  0  0  0  0  0  0
    1.2864    4.2438    0.0000 C   0  0  0  0  0  0  0  0  0  0  0  0
    0.8739    3.5294    0.0000 C   0  0  0  0  0  0  0  0  0  0  0  0
    0.0489    3.5294    0.0000 C   0  0  0  0  0  0  0  0  0  0  0  0
   -1.0051    2.9234    0.0000 C   0  0  0  0  0  0  0  0  0  0  0  0
    5.6267    1.1195    0.0000 C   0  0  0  0  0  0  0  0  0  0  0  0
    5.0464    1.9074    0.0000 C   0  0  0  0  0  0  0  0  0  0  0  0
    2.2823    2.5309    0.0000 H   0  0  0  0  0  0  0  0  0  0  0  0
   -0.7308    2.0201    0.0000 H   0  0  0  0  0  0  0  0  0  0  0  0
    2.1425   -2.1548    0.0000 C   0  0  0  0  0  0  0  0  0  0  0  0
    2.1425   -1.3298    0.0000 C   0  0  0  0  0  0  0  0  0  0  0  0
    2.8099   -2.6397    0.0000 C   0  0  0  0  0  0  0  0  0  0  0  0
    0.7960    0.1327    0.0000 H   0  0  0  0  0  0  0  0  0  0  0  0
  1  2  1  0  0  0  0
  1  6  2  0  0  0  0
  2  3  2  0  0  0  0
  3  4  1  0  0  0  0
  4  5  2  0  0  0  0
  5  6  1  0  0  0  0
  7  8  2  0  0  0  0
  8  9  1  0  0  0  0
  9 10  2  0  0  0  0
  5  7  1  0  0  0  0
 10  6  1  0  0  0  0
 11 12  2  0  0  0  0
 11 15  1  0  0  0  0
 12 13  1  0  0  0  0
 13 14  1  0  0  0  0
 14 15  2  0  0  0  0
  8 12  1  0  0  0  0
  4 16  1  0  0  0  0
  3 17  1  0  0  0  0
 17 18  1  0  0  0  0
 10 19  1  0  0  0  0
 20 21  1  0  0  0  0
 20 24  1  0  0  0  0
 21 22  1  0  0  0  0
 22 23  1  0  0  0  0
 23 24  1  0  0  0  0
 19 22  1  1  0  0  0
 20 25  1  0  0  0  0
 24 26  1  0  0  0  0
 26 27  2  0  0  0  0
 26 28  1  0  0  0  0
 25 29  1  0  0  0  0
 25 30  2  0  0  0  0
 28 31  1  0  0  0  0
 31 32  1  6  0  0  0
 32 33  1  0  0  0  0
 32 34  2  0  0  0  0
 33 35  1  0  0  0  0
 35 36  2  0  0  0  0
 35 37  2  0  0  0  0
 35 38  1  0  0  0  0
 31 39  1  0  0  0  0
 39 40  1  0  0  0  0
 31 40  1  0  0  0  0
 39 41  1  0  0  0  0
 41 42  2  0  0  0  0
 42 43  1  0  0  0  0
 43 44  1  0  0  0  0
 44 45  1  0  0  0  0
 45 46  1  0  0  0  0
 46 29  1  0  0  0  0
 29 47  1  0  0  0  0
 38 48  1  0  0  0  0
 38 49  1  0  0  0  0
 49 48  1  0  0  0  0
 39 50  1  6  0  0  0
 20 51  1  6  0  0  0
 15 52  1  0  0  0  0
 52 53  1  0  0  0  0
 52 54  1  0  0  0  0
 24 55  1  1  0  0  0
M  END
> <DRUGBANK_ID>
DB06290

> <DRUG_GROUPS>
approved

> <GENERIC_NAME>
SIMEPREVIR

> <SYNONYMS>
TMC435; TMC435350

> <BRANDS>
OLYSIO

> <CHEMICAL_FORMULA>
C38H47N5O7S2

> <MOLECULAR_WEIGHT>
749.939

> <EXACT_MASS>
749.291690263

> <IUPAC_NAME>
(1R,4R,6R,7Z,15R)-N-(cyclopropanesulfonyl)-17-({7-methoxy-8-methyl-2-[4-(propan-2-yl)-1,3-thiazol-2-yl]quinolin-4-yl}oxy)-13-methyl-2,14-dioxo-3,13-diazatricyclo[13.3.0.0⁴,⁶]octadec-7-ene-4-carboxamide

> <IUPAC_TRADITIONAL_NAME>
(1R,4R,6R,7Z,15R)-N-(cyclopropanesulfonyl)-17-{[2-(4-isopropyl-1,3-thiazol-2-yl)-7-methoxy-8-methylquinolin-4-yl]oxy}-13-methyl-2,14-dioxo-3,13-diazatricyclo[13.3.0.0⁴,⁶]octadec-7-ene-4-carboxamide

> <INCHI_IDENTIFIER>
InChI=1/C38H47N5O7S2/c1-21(2)30-20-51-35(40-30)29-18-32(26-13-14-31(49-5)22(3)33(26)39-29)50-24-16-27-28(17-24)36(45)43(4)15-9-7-6-8-10-23-19-38(23,41-34(27)44)37(46)42-52(47,48)25-11-12-25/h8,10,13-14,18,20-21,23-25,27-28H,6-7,9,11-12,15-17,19H2,1-5H3,(H,41,44)(H,42,46)/b10-8-/t23-,24?,27+,28+,38+/s2

> <INCHI_KEY>
InChIKey=JTZZSQYMACOLNN-RCSAWCOCNA-N

> <SMILES>
[H][C@]12C[C@]1(NC(=O)[C@]1([H])CC(C[C@@]1([H])C(=O)N(C)CCCC\C=C/2)OC1=CC(=NC2=C(C)C(OC)=CC=C12)C1=NC(=CS1)C(C)C)C(=O)NS(=O)(=O)C1CC1

> <JCHEM_ACCEPTOR_COUNT>
9

> <JCHEM_DONOR_COUNT>
2

> <JCHEM_ACIDIC_PKA>
3.77

> <JCHEM_BASIC_PKA>
1.62

> <JCHEM_PHYSIOLOGICAL_CHARGE>
-1

> <ALOGPS_LOGP>
4.69

> <JCHEM_LOGP>
4.56

> <ALOGPS_LOGS>
-5.4

> <JCHEM_POLARIZABILITY>
79.98

> <JCHEM_POLAR_SURFACE_AREA>
156.89

> <JCHEM_REFRACTIVITY>
206.95

> <JCHEM_ROTATABLE_BOND_COUNT>
7

> <ALOGPS_SOLUBILITY>
3.03e-03 g/l __ 

$$$$
