
  Mrv0541 02241213002D          

 75 82  0  0  1  0            999 V2000
   15.1996   -4.8731    0.0000 C   0  0  0  0  0  0  0  0  0  0  0  0
   15.9141   -4.4606    0.0000 C   0  0  0  0  0  0  0  0  0  0  0  0
   16.6285   -4.8731    0.0000 C   0  0  0  0  0  0  0  0  0  0  0  0
   17.3430   -4.4606    0.0000 C   0  0  0  0  0  0  0  0  0  0  0  0
   18.0575   -4.8731    0.0000 C   0  0  1  0  0  0  0  0  0  0  0  0
   18.7719   -4.4606    0.0000 O   0  0  0  0  0  0  0  0  0  0  0  0
   19.4864   -4.8731    0.0000 C   0  0  1  0  0  0  0  0  0  0  0  0
   18.0661   -3.9852    0.0000 C   0  0  0  0  0  0  0  0  0  0  0  0
   20.2009   -4.4606    0.0000 C   0  0  1  0  0  0  0  0  0  0  0  0
   20.9154   -4.8731    0.0000 C   0  0  2  0  0  0  0  0  0  0  0  0
   20.9154   -5.6981    0.0000 C   0  0  1  0  0  0  0  0  0  0  0  0
   20.2009   -6.1106    0.0000 C   0  0  2  0  0  0  0  0  0  0  0  0
   19.4864   -5.6981    0.0000 O   0  0  0  0  0  0  0  0  0  0  0  0
   20.2008   -3.6356    0.0000 O   0  0  0  0  0  0  0  0  0  0  0  0
   21.6298   -4.4606    0.0000 O   0  0  0  0  0  0  0  0  0  0  0  0
   21.6298   -6.1106    0.0000 O   0  0  0  0  0  0  0  0  0  0  0  0
   20.2009   -6.9356    0.0000 C   0  0  0  0  0  0  0  0  0  0  0  0
   20.9154   -7.3481    0.0000 O   0  0  0  0  0  0  0  0  0  0  0  0
   14.4851   -4.4606    0.0000 C   0  0  0  0  0  0  0  0  0  0  0  0
   15.1996   -5.6981    0.0000 C   0  0  0  0  0  0  0  0  0  0  0  0
   13.7813   -8.1591    0.0000 C   0  0  0  0  0  0  0  0  0  0  0  0
   14.4958   -7.7466    0.0000 C   0  0  0  0  0  0  0  0  0  0  0  0
   15.2103   -8.1591    0.0000 C   0  0  1  0  0  0  0  0  0  0  0  0
   15.2103   -8.9841    0.0000 C   0  0  2  0  0  0  0  0  0  0  0  0
   14.4958   -9.3966    0.0000 C   0  0  0  0  0  0  0  0  0  0  0  0
   13.7813   -8.9841    0.0000 C   0  0  1  0  0  0  0  0  0  0  0  0
   15.9247   -7.7466    0.0000 C   0  0  2  0  0  0  0  0  0  0  0  0
   16.6392   -8.1591    0.0000 C   0  0  1  0  0  0  0  0  0  0  0  0
   16.6392   -8.9841    0.0000 C   0  0  0  0  0  0  0  0  0  0  0  0
   15.9247   -9.3966    0.0000 C   0  0  0  0  0  0  0  0  0  0  0  0
   15.9247   -6.9216    0.0000 C   0  0  0  0  0  0  0  0  0  0  0  0
   16.6392   -6.5091    0.0000 C   0  0  2  0  0  0  0  0  0  0  0  0
   17.3537   -6.9216    0.0000 C   0  0  1  0  0  0  0  0  0  0  0  0
   17.3537   -7.7466    0.0000 C   0  0  1  0  0  0  0  0  0  0  0  0
   18.0681   -6.5091    0.0000 C   0  0  2  0  0  0  0  0  0  0  0  0
   18.7826   -6.9216    0.0000 C   0  0  0  0  0  0  0  0  0  0  0  0
   18.7826   -7.7466    0.0000 C   0  0  0  0  0  0  0  0  0  0  0  0
   16.6118   -5.6352    0.0000 O   0  0  0  0  0  0  0  0  0  0  0  0
   16.6118   -7.2852    0.0000 C   0  0  0  0  0  0  0  0  0  0  0  0
   17.3390   -8.6275    0.0000 C   0  0  0  0  0  0  0  0  0  0  0  0
   13.8712   -9.9140    0.0000 C   0  0  0  0  0  0  0  0  0  0  0  0
   15.1017   -9.9000    0.0000 C   0  0  0  0  0  0  0  0  0  0  0  0
   13.0741   -9.3127    0.0000 O   0  0  0  0  0  0  0  0  0  0  0  0
   21.6189   -9.3985    0.0000 C   0  0  0  0  0  0  0  0  0  0  0  0
   20.9154   -9.8108    0.0000 C   0  0  2  0  0  0  0  0  0  0  0  0
   20.2007   -9.4039    0.0000 C   0  0  1  0  0  0  0  0  0  0  0  0
   20.2007   -8.5850    0.0000 C   0  0  2  0  0  0  0  0  0  0  0  0
   20.9154   -8.1726    0.0000 C   0  0  1  0  0  0  0  0  0  0  0  0
   21.6189   -8.5795    0.0000 O   0  0  0  0  0  0  0  0  0  0  0  0
   19.4861   -9.8163    0.0000 O   0  0  0  0  0  0  0  0  0  0  0  0
   19.4861   -8.1726    0.0000 O   0  0  0  0  0  0  0  0  0  0  0  0
   20.9154  -10.6354    0.0000 O   0  0  0  0  0  0  0  0  0  0  0  0
   12.3597   -8.9002    0.0000 C   0  0  1  0  0  0  0  0  0  0  0  0
   11.6452   -9.3127    0.0000 C   0  0  1  0  0  0  0  0  0  0  0  0
   10.9307   -8.9002    0.0000 C   0  0  2  0  0  0  0  0  0  0  0  0
   10.9307   -8.0752    0.0000 C   0  0  1  0  0  0  0  0  0  0  0  0
   11.6452   -7.6627    0.0000 C   0  0  2  0  0  0  0  0  0  0  0  0
   12.3597   -8.0752    0.0000 O   0  0  0  0  0  0  0  0  0  0  0  0
   10.2162   -9.3127    0.0000 O   0  0  0  0  0  0  0  0  0  0  0  0
   10.2162   -7.6627    0.0000 O   0  0  0  0  0  0  0  0  0  0  0  0
   11.6452   -6.8377    0.0000 C   0  0  0  0  0  0  0  0  0  0  0  0
   10.9307   -6.4252    0.0000 O   0  0  0  0  0  0  0  0  0  0  0  0
   11.6893  -10.5991    0.0000 O   0  0  0  0  0  0  0  0  0  0  0  0
   10.8643  -11.1725    0.0000 C   0  0  1  0  0  0  0  0  0  0  0  0
   10.1400  -10.7774    0.0000 C   0  0  1  0  0  0  0  0  0  0  0  0
    9.4357  -11.2071    0.0000 C   0  0  2  0  0  0  0  0  0  0  0  0
    9.4557  -12.0318    0.0000 C   0  0  1  0  0  0  0  0  0  0  0  0
   10.1800  -12.4269    0.0000 C   0  0  2  0  0  0  0  0  0  0  0  0
   10.8842  -11.9972    0.0000 O   0  0  0  0  0  0  0  0  0  0  0  0
    8.7114  -10.8121    0.0000 O   0  0  0  0  0  0  0  0  0  0  0  0
    8.7515  -12.4616    0.0000 O   0  0  0  0  0  0  0  0  0  0  0  0
   10.2000  -13.1818    0.0000 C   0  0  0  0  0  0  0  0  0  0  0  0
    9.4958  -13.6814    0.0000 O   0  0  0  0  0  0  0  0  0  0  0  0
   10.1377   -9.9979    0.0000 O   0  0  0  0  0  0  0  0  0  0  0  0
   15.1996   -7.2712    0.0000 C   0  0  0  0  0  0  0  0  0  0  0  0
  2  1  2  0  0  0  0
  3  2  1  0  0  0  0
  4  3  1  0  0  0  0
  5  4  1  0  0  0  0
  5  6  1  6  0  0  0
  7  6  1  1  0  0  0
  5  8  1  1  0  0  0
  7  9  1  0  0  0  0
  9 10  1  0  0  0  0
 10 11  1  0  0  0  0
 11 12  1  0  0  0  0
 12 13  1  0  0  0  0
 13  7  1  0  0  0  0
  9 14  1  6  0  0  0
 10 15  1  1  0  0  0
 11 16  1  6  0  0  0
 12 17  1  1  0  0  0
 17 18  1  0  0  0  0
  1 19  1  0  0  0  0
  1 20  1  0  0  0  0
 21 22  1  0  0  0  0
 22 23  1  0  0  0  0
 24 25  1  1  0  0  0
 25 26  1  0  0  0  0
 26 21  1  0  0  0  0
 23 27  1  0  0  0  0
 28 29  1  0  0  0  0
 29 30  1  0  0  0  0
 30 24  1  0  0  0  0
 24 23  1  0  0  0  0
 31 32  1  0  0  0  0
 32 33  1  0  0  0  0
 34 28  1  0  0  0  0
 28 27  1  0  0  0  0
 27 31  1  1  0  0  0
 33 35  1  0  0  0  0
 35 36  1  0  0  0  0
 36 37  1  0  0  0  0
 33 34  1  6  0  0  0
 34 37  1  0  0  0  0
 35  5  1  1  0  0  0
 32 38  1  1  0  0  0
 28 39  1  1  0  0  0
 34 40  1  6  0  0  0
 25 41  1  0  0  0  0
 25 42  1  0  0  0  0
 26 43  1  1  0  0  0
 44 45  1  0  0  0  0
 45 46  1  0  0  0  0
 46 47  1  0  0  0  0
 47 48  1  0  0  0  0
 48 49  1  0  0  0  0
 49 44  1  0  0  0  0
 46 50  1  6  0  0  0
 47 51  1  1  0  0  0
 48 18  1  6  0  0  0
 45 52  1  1  0  0  0
 53 43  1  1  0  0  0
 53 54  1  0  0  0  0
 54 55  1  0  0  0  0
 55 56  1  0  0  0  0
 56 57  1  0  0  0  0
 57 58  1  0  0  0  0
 58 53  1  0  0  0  0
 55 59  1  1  0  0  0
 56 60  1  6  0  0  0
 57 61  1  1  0  0  0
 61 62  1  0  0  0  0
 64 63  1  6  0  0  0
 64 65  1  0  0  0  0
 65 66  1  0  0  0  0
 66 67  1  0  0  0  0
 67 68  1  0  0  0  0
 68 69  1  0  0  0  0
 69 64  1  0  0  0  0
 66 70  1  6  0  0  0
 67 71  1  1  0  0  0
 68 72  1  6  0  0  0
 72 73  1  0  0  0  0
 54 63  1  6  0  0  0
 65 74  1  1  0  0  0
 23 75  1  1  0  0  0
M  END
> <DRUGBANK_ID>
DB06748

> <DRUG_GROUPS>
nutraceutical

> <GENERIC_NAME>
ginsenoside C

> <CHEMICAL_FORMULA>
C53H90O22

> <MOLECULAR_WEIGHT>
1079.2685

> <EXACT_MASS>
1078.592374564

> <IUPAC_NAME>
(2S,3R,4S,5S,6R)-2-{[(2S)-2-[(1R,2R,5S,7R,10R,11R,14S,15R,16R)-5-{[(2R,3R,4S,5S,6R)-4,5-dihydroxy-6-(hydroxymethyl)-3-{[(2S,3R,4S,5S,6R)-3,4,5-trihydroxy-6-(hydroxymethyl)oxan-2-yl]oxy}oxan-2-yl]oxy}-16-hydroxy-2,6,6,10,11-pentamethyltetracyclo[8.7.0.0^{2,7}.0^{11,15}]heptadecan-14-yl]-6-methylhept-5-en-2-yl]oxy}-6-({[(2S,3R,4S,5R)-3,4,5-trihydroxyoxan-2-yl]oxy}methyl)oxane-3,4,5-triol

> <IUPAC_TRADITIONAL_NAME>
(2S,3R,4S,5S,6R)-2-{[(2S)-2-[(1R,2R,5S,7R,10R,11R,14S,15R,16R)-5-{[(2R,3R,4S,5S,6R)-4,5-dihydroxy-6-(hydroxymethyl)-3-{[(2S,3R,4S,5S,6R)-3,4,5-trihydroxy-6-(hydroxymethyl)oxan-2-yl]oxy}oxan-2-yl]oxy}-16-hydroxy-2,6,6,10,11-pentamethyltetracyclo[8.7.0.0^{2,7}.0^{11,15}]heptadecan-14-yl]-6-methylhept-5-en-2-yl]oxy}-6-({[(2S,3R,4S,5R)-3,4,5-trihydroxyoxan-2-yl]oxy}methyl)oxane-3,4,5-triol

> <INCHI_IDENTIFIER>
InChI=1S/C53H90O22/c1-23(2)10-9-14-53(8,75-47-43(67)39(63)37(61)29(72-47)22-69-45-41(65)34(58)26(57)21-68-45)24-11-16-52(7)33(24)25(56)18-31-50(5)15-13-32(49(3,4)30(50)12-17-51(31,52)6)73-48-44(40(64)36(60)28(20-55)71-48)74-46-42(66)38(62)35(59)27(19-54)70-46/h10,24-48,54-67H,9,11-22H2,1-8H3/t24-,25+,26+,27+,28+,29+,30-,31+,32-,33-,34-,35+,36+,37+,38-,39-,40-,41+,42+,43+,44+,45-,46-,47-,48-,50-,51+,52+,53-/m0/s1

> <INCHI_KEY>
InChIKey=NODILNFGTFIURN-USYOXQFSSA-N

> <SMILES>
CC(C)=CCC[C@](C)(O[C@@H]1O[C@H](CO[C@@H]2OC[C@@H](O)[C@H](O)[C@H]2O)[C@@H](O)[C@H](O)[C@H]1O)[C@H]1CC[C@]2(C)[C@@H]1[C@H](O)C[C@@H]1[C@@]3(C)CC[C@H](O[C@@H]4O[C@H](CO)[C@@H](O)[C@H](O)[C@H]4O[C@@H]4O[C@H](CO)[C@@H](O)[C@H](O)[C@H]4O)C(C)(C)[C@@H]3CC[C@@]21C

> <JCHEM_ACCEPTOR_COUNT>
22

> <JCHEM_DONOR_COUNT>
14

> <JCHEM_ACIDIC_PKA>
11.75

> <JCHEM_BASIC_PKA>
-3.6

> <JCHEM_PHYSIOLOGICAL_CHARGE>
0

> <ALOGPS_LOGP>
-0.02

> <JCHEM_LOGP>
-0.92

> <ALOGPS_LOGS>
-3.1

> <JCHEM_POLARIZABILITY>
117.65

> <JCHEM_POLAR_SURFACE_AREA>
357.06

> <JCHEM_REFRACTIVITY>
260.93

> <JCHEM_ROTATABLE_BOND_COUNT>
15

> <ALOGPS_SOLUBILITY>
7.84e-01 g/l __ 

$$$$
