
  Mrv0541 02241214202D          

 21 22  0  0  0  0            999 V2000
    2.1434   -2.8875    0.0000 C    0  0  0  0  0  0  0  0  0  0  0  0
    2.1434   -3.7125    0.0000 C    0  0  0  0  0  0  0  0  0  0  0  0
    1.4289   -4.1250    0.0000 C    0  0  0  0  0  0  0  0  0  0  0  0
    0.7145   -3.7125    0.0000 C    0  0  0  0  0  0  0  0  0  0  0  0
    0.7145   -2.8875    0.0000 C    0  0  0  0  0  0  0  0  0  0  0  0
    1.4289   -2.4750    0.0000 C    0  0  0  0  0  0  0  0  0  0  0  0
    1.4289   -1.6500    0.0000 N    0  3  0  0  0  0  0  0  0  0  0  0
    0.7145   -1.2375    0.0000 O    0  0  0  0  0  0  0  0  0  0  0  0
    2.1434   -1.2375    0.0000 O    0  5  0  0  0  0  0  0  0  0  0  0
    0.0000   -4.1250    0.0000 Cl   0  0  0  0  0  0  0  0  0  0  0  0
    1.4289   -4.9500    0.0000 N    0  0  0  0  0  0  0  0  0  0  0  0
    2.1434   -5.3625    0.0000 C    0  0  0  0  0  0  0  0  0  0  0  0
    2.8579   -4.9500    0.0000 O    0  0  0  0  0  0  0  0  0  0  0  0
    2.1434   -6.1875    0.0000 C    0  0  0  0  0  0  0  0  0  0  0  0
    2.8579   -6.6000    0.0000 C    0  0  0  0  0  0  0  0  0  0  0  0
    2.8579   -7.4250    0.0000 C    0  0  0  0  0  0  0  0  0  0  0  0
    2.1434   -7.8375    0.0000 C    0  0  0  0  0  0  0  0  0  0  0  0
    1.4289   -7.4250    0.0000 C    0  0  0  0  0  0  0  0  0  0  0  0
    1.4289   -6.6000    0.0000 C    0  0  0  0  0  0  0  0  0  0  0  0
    0.7145   -7.8375    0.0000 Cl   0  0  0  0  0  0  0  0  0  0  0  0
    3.5724   -6.1875    0.0000 O    0  0  0  0  0  0  0  0  0  0  0  0
  1  2  2  0  0  0  0
  2  3  1  0  0  0  0
  3  4  2  0  0  0  0
  4  5  1  0  0  0  0
  5  6  2  0  0  0  0
  1  6  1  0  0  0  0
  6  7  1  0  0  0  0
  7  8  2  0  0  0  0
  7  9  1  0  0  0  0
  4 10  1  0  0  0  0
  3 11  1  0  0  0  0
 11 12  1  0  0  0  0
 12 13  2  0  0  0  0
 12 14  1  0  0  0  0
 14 15  2  0  0  0  0
 15 16  1  0  0  0  0
 16 17  2  0  0  0  0
 17 18  1  0  0  0  0
 18 19  2  0  0  0  0
 14 19  1  0  0  0  0
 18 20  1  0  0  0  0
 15 21  1  0  0  0  0
M  END
> <DRUGBANK_ID>
DB06803

> <DRUG_GROUPS>
approved

> <GENERIC_NAME>
Niclosamide

> <BRANDS>
Niclocide

> <CHEMICAL_FORMULA>
C13H8Cl2N2O4

> <MOLECULAR_WEIGHT>
327.12

> <EXACT_MASS>
325.986112168

> <IUPAC_NAME>
5-chloro-N-(2-chloro-4-nitrophenyl)-2-hydroxybenzamide

> <IUPAC_TRADITIONAL_NAME>
niclosamide

> <INCHI_IDENTIFIER>
InChI=1S/C13H8Cl2N2O4/c14-7-1-4-12(18)9(5-7)13(19)16-11-3-2-8(17(20)21)6-10(11)15/h1-6,18H,(H,16,19)

> <INCHI_KEY>
InChIKey=RJMUSRYZPJIFPJ-UHFFFAOYSA-N

> <SMILES>
OC1=C(C=C(Cl)C=C1)C(=O)NC1=C(Cl)C=C(C=C1)[N+]([O-])=O

> <JCHEM_ACCEPTOR_COUNT>
4

> <JCHEM_DONOR_COUNT>
2

> <JCHEM_ACIDIC_PKA>
6.89

> <JCHEM_BASIC_PKA>
-4.4

> <JCHEM_PHYSIOLOGICAL_CHARGE>
-1

> <ALOGPS_LOGP>
4.49

> <JCHEM_LOGP>
3.91

> <ALOGPS_LOGS>
-4.6

> <JCHEM_POLARIZABILITY>
28.47

> <JCHEM_POLAR_SURFACE_AREA>
95.15

> <JCHEM_REFRACTIVITY>
80.51

> <JCHEM_ROTATABLE_BOND_COUNT>
3

> <ALOGPS_SOLUBILITY>
7.99e-03 g/l __ 

$$$$
