2HR
  Mrv0541 02241213062D          

 21 21  0  0  0  0            999 V2000
   -2.8155    0.8712    0.0000 C   0  0  0  0  0  0  0  0  0  0  0  0
   -2.1010    1.2837    0.0000 C   0  0  0  0  0  0  0  0  0  0  0  0
   -1.3865    0.8712    0.0000 C   0  0  0  0  0  0  0  0  0  0  0  0
   -0.6720    1.2837    0.0000 C   0  0  0  0  0  0  0  0  0  0  0  0
    0.0424    0.8712    0.0000 C   0  0  0  0  0  0  0  0  0  0  0  0
    0.7569    1.2837    0.0000 C   0  0  0  0  0  0  0  0  0  0  0  0
    1.4714    0.8712    0.0000 P   0  0  1  0  0  0  0  0  0  0  0  0
    1.0589    0.1568    0.0000 O   0  0  0  0  0  0  0  0  0  0  0  0
    2.1858    0.4587    0.0000 O   0  0  0  0  0  0  0  0  0  0  0  0
    2.9003    0.8712    0.0000 C   0  0  0  0  0  0  0  0  0  0  0  0
    3.6148    0.4587    0.0000 C   0  0  2  0  0  0  0  0  0  0  0  0
    3.6148   -0.3663    0.0000 C   0  0  0  0  0  0  0  0  0  0  0  0
    4.3293    0.8712    0.0000 C   0  0  0  0  0  0  0  0  0  0  0  0
    5.0437    0.4587    0.0000 C   0  0  0  0  0  0  0  0  0  0  0  0
    5.7582    0.8712    0.0000 C   0  0  0  0  0  0  0  0  0  0  0  0
    6.4727    0.4587    0.0000 C   0  0  0  0  0  0  0  0  0  0  0  0
    6.4727   -0.3663    0.0000 C   0  0  0  0  0  0  0  0  0  0  0  0
    5.7582   -0.7788    0.0000 C   0  0  0  0  0  0  0  0  0  0  0  0
    5.0437   -0.3663    0.0000 C   0  0  0  0  0  0  0  0  0  0  0  0
    1.8839    1.5857    0.0000 O   0  0  0  0  0  0  0  0  0  0  0  0
    3.1091    0.1668    0.0000 H   0  0  0  0  0  0  0  0  0  0  0  0
  1  2  1  0  0  0  0
  2  3  1  0  0  0  0
  3  4  1  0  0  0  0
  4  5  1  0  0  0  0
  5  6  1  0  0  0  0
  6  7  1  0  0  0  0
  7  8  1  1  0  0  0
  7  9  1  6  0  0  0
  7 20  2  0  0  0  0
  9 10  1  0  0  0  0
 10 11  1  0  0  0  0
 11 12  1  1  0  0  0
 11 13  1  0  0  0  0
 11 21  1  6  0  0  0
 13 14  1  0  0  0  0
 14 15  2  0  0  0  0
 14 19  1  0  0  0  0
 15 16  1  0  0  0  0
 16 17  2  0  0  0  0
 17 18  1  0  0  0  0
 18 19  2  0  0  0  0
M  END
> <DRUGBANK_ID>
DB06965

> <DRUG_GROUPS>
experimental

> <GENERIC_NAME>
HEXYLPHOSPHONIC ACID (R)-2-METHYL-3-PHENYLPROPYL ESTER

> <CHEMICAL_FORMULA>
C16H27O3P

> <MOLECULAR_WEIGHT>
298.3575

> <EXACT_MASS>
298.169781242

> <IUPAC_NAME>
hexyl[(2R)-2-methyl-3-phenylpropoxy]phosphinic acid

> <IUPAC_TRADITIONAL_NAME>
hexyl(2R)-2-methyl-3-phenylpropoxyphosphinic acid

> <INCHI_IDENTIFIER>
InChI=1S/C16H27O3P/c1-3-4-5-9-12-20(17,18)19-14-15(2)13-16-10-7-6-8-11-16/h6-8,10-11,15H,3-5,9,12-14H2,1-2H3,(H,17,18)/t15-/m1/s1

> <INCHI_KEY>
InChIKey=MMTDYBZZRYOMFD-OAHLLOKOSA-N

> <SMILES>
[H][C@](C)(CO[P@@](O)(=O)CCCCCC)CC1=CC=CC=C1

> <JCHEM_ACCEPTOR_COUNT>
2

> <JCHEM_DONOR_COUNT>
1

> <JCHEM_ACIDIC_PKA>
1.96

> <JCHEM_PHYSIOLOGICAL_CHARGE>
-1

> <ALOGPS_LOGP>
3.86

> <JCHEM_LOGP>
4.27

> <ALOGPS_LOGS>
-3.9

> <JCHEM_POLARIZABILITY>
33.69

> <JCHEM_POLAR_SURFACE_AREA>
46.53

> <JCHEM_REFRACTIVITY>
83.3

> <JCHEM_ROTATABLE_BOND_COUNT>
10

> <ALOGPS_SOLUBILITY>
3.73e-02 g/l __ 

$$$$
