
  Mrv0541 02231218162D          

 15 15  0  0  1  0            999 V2000
    2.8075    1.1096    0.0000 O   0  0  0  0  0  0  0  0  0  0  0  0
    4.9509    2.3472    0.0000 O   0  0  0  0  0  0  0  0  0  0  0  0
    2.0930   -1.7779    0.0000 O   0  0  0  0  0  0  0  0  0  0  0  0
    3.5220   -2.6029    0.0000 O   0  0  0  0  0  0  0  0  0  0  0  0
    3.5220    2.3472    0.0000 O   0  0  0  0  0  0  0  0  0  0  0  0
    4.9509    0.6971    0.0000 N   0  0  0  0  0  0  0  0  0  0  0  0
    3.5220    0.6971    0.0000 C   0  0  2  0  0  0  0  0  0  0  0  0
    4.2365    1.1096    0.0000 C   0  0  2  0  0  0  0  0  0  0  0  0
    3.5220   -0.1279    0.0000 C   0  0  0  0  0  0  0  0  0  0  0  0
    2.8075   -0.5404    0.0000 C   0  0  0  0  0  0  0  0  0  0  0  0
    4.2365   -0.5404    0.0000 C   0  0  0  0  0  0  0  0  0  0  0  0
    4.2365    1.9347    0.0000 C   0  0  0  0  0  0  0  0  0  0  0  0
    2.8075   -1.3654    0.0000 C   0  0  0  0  0  0  0  0  0  0  0  0
    4.2365   -1.3654    0.0000 C   0  0  0  0  0  0  0  0  0  0  0  0
    3.5220   -1.7779    0.0000 C   0  0  0  0  0  0  0  0  0  0  0  0
  7  1  1  6  0  0  0
  2 12  1  0  0  0  0
  3 13  1  0  0  0  0
  4 15  1  0  0  0  0
  5 12  2  0  0  0  0
  8  6  1  6  0  0  0
  7  8  1  0  0  0  0
  7  9  1  0  0  0  0
  8 12  1  0  0  0  0
  9 10  2  0  0  0  0
  9 11  1  0  0  0  0
 10 13  1  0  0  0  0
 11 14  2  0  0  0  0
 13 15  2  0  0  0  0
 14 15  1  0  0  0  0
M  END
> <DRUGBANK_ID>
DB06262

> <DRUG_GROUPS>
approved; investigational

> <GENERIC_NAME>
Droxidopa

> <SYNONYMS>
L-Dihydroxyphenylserine; L-DOPS; L-threo-dihydroxyphenylserine

> <BRANDS>
Dops

> <CHEMICAL_FORMULA>
C9H11NO5

> <MOLECULAR_WEIGHT>
213.1873

> <EXACT_MASS>
213.063722467

> <IUPAC_NAME>
(2R,3S)-2-amino-3-(3,4-dihydroxyphenyl)-3-hydroxypropanoic acid

> <IUPAC_TRADITIONAL_NAME>
droxidopa

> <INCHI_IDENTIFIER>
InChI=1S/C9H11NO5/c10-7(9(14)15)8(13)4-1-2-5(11)6(12)3-4/h1-3,7-8,11-13H,10H2,(H,14,15)/t7-,8+/m1/s1

> <INCHI_KEY>
InChIKey=QXWYKJLNLSIPIN-SFYZADRCSA-N

> <SMILES>
N[C@H]([C@@H](O)C1=CC(O)=C(O)C=C1)C(O)=O

> <JCHEM_ACCEPTOR_COUNT>
6

> <JCHEM_DONOR_COUNT>
5

> <JCHEM_ACIDIC_PKA>
1.46

> <JCHEM_BASIC_PKA>
8.72

> <JCHEM_PHYSIOLOGICAL_CHARGE>
0

> <ALOGPS_LOGP>
-2.4

> <JCHEM_LOGP>
-2.7

> <ALOGPS_LOGS>
-1.1

> <JCHEM_POLARIZABILITY>
19.63

> <JCHEM_POLAR_SURFACE_AREA>
124.01

> <JCHEM_REFRACTIVITY>
50.29

> <JCHEM_ROTATABLE_BOND_COUNT>
3

> <ALOGPS_SOLUBILITY>
1.53e+01 g/l __ 

$$$$
