
  Mrv0541 02241213012D          

 56 61  0  0  1  0            999 V2000
    5.6212   -7.5159    0.0000 C   0  0  0  0  0  0  0  0  0  0  0  0
    6.3356   -7.1034    0.0000 C   0  0  0  0  0  0  0  0  0  0  0  0
    7.0502   -7.5159    0.0000 C   0  0  0  0  0  0  0  0  0  0  0  0
    7.7646   -7.1034    0.0000 C   0  0  0  0  0  0  0  0  0  0  0  0
    8.4791   -7.5159    0.0000 C   0  0  1  0  0  0  0  0  0  0  0  0
    9.1935   -7.1034    0.0000 O   0  0  0  0  0  0  0  0  0  0  0  0
    9.9080   -7.5159    0.0000 C   0  0  1  0  0  0  0  0  0  0  0  0
    8.4877   -6.6280    0.0000 C   0  0  0  0  0  0  0  0  0  0  0  0
   10.6225   -7.1034    0.0000 C   0  0  1  0  0  0  0  0  0  0  0  0
   11.3370   -7.5159    0.0000 C   0  0  2  0  0  0  0  0  0  0  0  0
   11.3370   -8.3409    0.0000 C   0  0  1  0  0  0  0  0  0  0  0  0
   10.6225   -8.7534    0.0000 C   0  0  2  0  0  0  0  0  0  0  0  0
    9.9080   -8.3409    0.0000 O   0  0  0  0  0  0  0  0  0  0  0  0
   10.6225   -6.2784    0.0000 O   0  0  0  0  0  0  0  0  0  0  0  0
   12.0515   -7.1034    0.0000 O   0  0  0  0  0  0  0  0  0  0  0  0
   12.0515   -8.7534    0.0000 O   0  0  0  0  0  0  0  0  0  0  0  0
   10.6225   -9.5784    0.0000 C   0  0  0  0  0  0  0  0  0  0  0  0
   11.3370   -9.9909    0.0000 O   0  0  0  0  0  0  0  0  0  0  0  0
    4.9067   -7.1034    0.0000 C   0  0  0  0  0  0  0  0  0  0  0  0
    5.6212   -8.3409    0.0000 C   0  0  0  0  0  0  0  0  0  0  0  0
    4.2029  -10.8019    0.0000 C   0  0  0  0  0  0  0  0  0  0  0  0
    4.9174  -10.3894    0.0000 C   0  0  2  0  0  0  0  0  0  0  0  0
    5.6319  -10.8019    0.0000 C   0  0  0  0  0  0  0  0  0  0  0  0
    5.6319  -11.6269    0.0000 C   0  0  2  0  0  0  0  0  0  0  0  0
    4.9174  -12.0394    0.0000 C   0  0  0  0  0  0  0  0  0  0  0  0
    4.2029  -11.6269    0.0000 C   0  0  1  0  0  0  0  0  0  0  0  0
    6.3464  -10.3894    0.0000 C   0  0  2  0  0  0  0  0  0  0  0  0
    7.0608  -10.8019    0.0000 C   0  0  1  0  0  0  0  0  0  0  0  0
    7.0608  -11.6269    0.0000 C   0  0  0  0  0  0  0  0  0  0  0  0
    6.3464  -12.0394    0.0000 C   0  0  2  0  0  0  0  0  0  0  0  0
    6.3464   -9.5644    0.0000 C   0  0  0  0  0  0  0  0  0  0  0  0
    7.0608   -9.1519    0.0000 C   0  0  2  0  0  0  0  0  0  0  0  0
    7.7753   -9.5644    0.0000 C   0  0  1  0  0  0  0  0  0  0  0  0
    7.7753  -10.3894    0.0000 C   0  0  1  0  0  0  0  0  0  0  0  0
    8.4897   -9.1519    0.0000 C   0  0  2  0  0  0  0  0  0  0  0  0
    9.2042   -9.5644    0.0000 C   0  0  0  0  0  0  0  0  0  0  0  0
    9.2042  -10.3894    0.0000 C   0  0  0  0  0  0  0  0  0  0  0  0
    7.0335   -8.2780    0.0000 O   0  0  0  0  0  0  0  0  0  0  0  0
    4.8801   -9.5364    0.0000 C   0  0  0  0  0  0  0  0  0  0  0  0
    7.0335   -9.9280    0.0000 C   0  0  0  0  0  0  0  0  0  0  0  0
    7.7606  -11.2704    0.0000 C   0  0  0  0  0  0  0  0  0  0  0  0
    4.2928  -12.5568    0.0000 C   0  0  0  0  0  0  0  0  0  0  0  0
    5.5233  -12.5428    0.0000 C   0  0  0  0  0  0  0  0  0  0  0  0
    3.4958  -11.9555    0.0000 O   0  0  0  0  0  0  0  0  0  0  0  0
    6.4462  -13.0462    0.0000 O   0  0  0  0  0  0  0  0  0  0  0  0
    7.2712  -13.6195    0.0000 C   0  0  1  0  0  0  0  0  0  0  0  0
    7.9954  -13.2244    0.0000 C   0  0  1  0  0  0  0  0  0  0  0  0
    8.6997  -13.6542    0.0000 C   0  0  2  0  0  0  0  0  0  0  0  0
    8.6797  -14.4789    0.0000 C   0  0  1  0  0  0  0  0  0  0  0  0
    7.9554  -14.8739    0.0000 C   0  0  2  0  0  0  0  0  0  0  0  0
    7.2512  -14.4443    0.0000 O   0  0  0  0  0  0  0  0  0  0  0  0
    8.0155  -12.3997    0.0000 O   0  0  0  0  0  0  0  0  0  0  0  0
    9.4240  -13.2591    0.0000 O   0  0  0  0  0  0  0  0  0  0  0  0
    9.3840  -14.9086    0.0000 O   0  0  0  0  0  0  0  0  0  0  0  0
    7.9354  -15.6987    0.0000 C   0  0  0  0  0  0  0  0  0  0  0  0
    8.6397  -16.1284    0.0000 O   0  0  0  0  0  0  0  0  0  0  0  0
  2  1  2  0  0  0  0
  3  2  1  0  0  0  0
  4  3  1  0  0  0  0
  5  4  1  0  0  0  0
  5  6  1  6  0  0  0
  7  6  1  1  0  0  0
  5  8  1  1  0  0  0
  7  9  1  0  0  0  0
  9 10  1  0  0  0  0
 10 11  1  0  0  0  0
 11 12  1  0  0  0  0
 12 13  1  0  0  0  0
 13  7  1  0  0  0  0
  9 14  1  6  0  0  0
 10 15  1  1  0  0  0
 11 16  1  6  0  0  0
 12 17  1  1  0  0  0
 17 18  1  0  0  0  0
  1 19  1  0  0  0  0
  1 20  1  0  0  0  0
 21 22  1  0  0  0  0
 22 23  1  0  0  0  0
 24 25  1  1  0  0  0
 25 26  1  0  0  0  0
 26 21  1  0  0  0  0
 27 23  1  1  0  0  0
 28 29  1  0  0  0  0
 29 30  1  0  0  0  0
 30 24  1  0  0  0  0
 24 23  1  0  0  0  0
 31 32  1  0  0  0  0
 32 33  1  0  0  0  0
 34 28  1  0  0  0  0
 28 27  1  0  0  0  0
 27 31  1  0  0  0  0
 33 35  1  0  0  0  0
 35 36  1  0  0  0  0
 36 37  1  0  0  0  0
 33 34  1  6  0  0  0
 34 37  1  0  0  0  0
 35  5  1  1  0  0  0
 32 38  1  1  0  0  0
 22 39  1  1  0  0  0
 28 40  1  1  0  0  0
 34 41  1  6  0  0  0
 25 42  1  0  0  0  0
 25 43  1  0  0  0  0
 26 44  1  1  0  0  0
 30 45  1  6  0  0  0
 46 45  1  1  0  0  0
 46 47  1  0  0  0  0
 47 48  1  0  0  0  0
 48 49  1  0  0  0  0
 49 50  1  0  0  0  0
 50 51  1  0  0  0  0
 51 46  1  0  0  0  0
 47 52  1  6  0  0  0
 48 53  1  1  0  0  0
 49 54  1  6  0  0  0
 50 55  1  1  0  0  0
 55 56  1  0  0  0  0
M  END
> <DRUGBANK_ID>
DB06750

> <DRUG_GROUPS>
nutraceutical

> <GENERIC_NAME>
Ginsenoside Rg1

> <SYNONYMS>


> <CHEMICAL_FORMULA>
C42H72O14

> <MOLECULAR_WEIGHT>
801.0127

> <EXACT_MASS>
800.492207012

> <IUPAC_NAME>
(2S,3R,4S,5S,6R)-2-{[(2S)-2-[(1R,3R,5S,7R,8S,10R,11R,14S,15R,16R)-5,16-dihydroxy-3,6,6,10,11-pentamethyl-8-{[(2R,3R,4S,5S,6R)-3,4,5-trihydroxy-6-(hydroxymethyl)oxan-2-yl]oxy}tetracyclo[8.7.0.0^{2,7}.0^{11,15}]heptadecan-14-yl]-6-methylhept-5-en-2-yl]oxy}-6-(hydroxymethyl)oxane-3,4,5-triol

> <IUPAC_TRADITIONAL_NAME>
(2S,3R,4S,5S,6R)-2-{[(2S)-2-[(1R,3R,5S,7R,8S,10R,11R,14S,15R,16R)-5,16-dihydroxy-3,6,6,10,11-pentamethyl-8-{[(2R,3R,4S,5S,6R)-3,4,5-trihydroxy-6-(hydroxymethyl)oxan-2-yl]oxy}tetracyclo[8.7.0.0^{2,7}.0^{11,15}]heptadecan-14-yl]-6-methylhept-5-en-2-yl]oxy}-6-(hydroxymethyl)oxane-3,4,5-triol

> <INCHI_IDENTIFIER>
InChI=1S/C42H72O14/c1-19(2)10-9-12-42(8,56-38-36(52)34(50)32(48)26(18-44)55-38)21-11-13-40(6)29(21)23(45)15-22-28-20(3)14-27(46)39(4,5)30(28)24(16-41(22,40)7)53-37-35(51)33(49)31(47)25(17-43)54-37/h10,20-38,43-52H,9,11-18H2,1-8H3/t20-,21+,22-,23-,24+,25-,26-,27+,28?,29+,30-,31-,32-,33+,34+,35-,36-,37-,38+,40-,41-,42+/m1/s1

> <INCHI_KEY>
InChIKey=BPULMONLIRTBIG-SIWKGUCZSA-N

> <SMILES>
C[C@@H]1C[C@H](O)C(C)(C)[C@@H]2[C@H](C[C@]3(C)[C@H](C[C@@H](O)[C@@H]4[C@H](CC[C@@]34C)[C@](C)(CCC=C(C)C)O[C@@H]3O[C@H](CO)[C@@H](O)[C@H](O)[C@H]3O)C12)O[C@@H]1O[C@H](CO)[C@@H](O)[C@H](O)[C@H]1O

> <JCHEM_ACCEPTOR_COUNT>
14

> <JCHEM_DONOR_COUNT>
10

> <JCHEM_ACIDIC_PKA>
11.91

> <JCHEM_BASIC_PKA>
-3

> <JCHEM_PHYSIOLOGICAL_CHARGE>
0

> <ALOGPS_LOGP>
0.59

> <JCHEM_LOGP>
0.67

> <ALOGPS_LOGS>
-3.4

> <JCHEM_POLARIZABILITY>
88.2

> <JCHEM_POLAR_SURFACE_AREA>
239.22

> <JCHEM_REFRACTIVITY>
203.73

> <JCHEM_ROTATABLE_BOND_COUNT>
10

> <ALOGPS_SOLUBILITY>
3.31e-01 g/l __ 

$$$$
