
  Mrv0541 05181322202D          

 29 32  0  0  1  0            999 V2000
    1.4289   -1.6500    0.0000 C    0  0  0  0  0  0  0  0  0  0  0  0
    1.4289   -2.4750    0.0000 C    0  0  0  0  0  0  0  0  0  0  0  0
    0.7145   -2.8875    0.0000 C    0  0  0  0  0  0  0  0  0  0  0  0
    0.0000   -2.4750    0.0000 C    0  0  0  0  0  0  0  0  0  0  0  0
    0.0000   -1.6500    0.0000 C    0  0  0  0  0  0  0  0  0  0  0  0
    0.7145   -1.2375    0.0000 C    0  0  0  0  0  0  0  0  0  0  0  0
    0.7145   -0.4125    0.0000 N    0  0  0  0  0  0  0  0  0  0  0  0
    0.0000    0.0000    0.0000 C    0  0  0  0  0  0  0  0  0  0  0  0
    0.0000    0.8250    0.0000 C    0  0  0  0  0  0  0  0  0  0  0  0
    0.7145    1.2375    0.0000 O    0  0  0  0  0  0  0  0  0  0  0  0
    1.4289    0.8250    0.0000 C    0  0  0  0  0  0  0  0  0  0  0  0
    1.4289    0.0000    0.0000 C    0  0  0  0  0  0  0  0  0  0  0  0
    2.1434   -0.4125    0.0000 O    0  0  0  0  0  0  0  0  0  0  0  0
    0.7145   -3.7125    0.0000 N    0  0  0  0  0  0  0  0  0  0  0  0
    1.3819   -4.1974    0.0000 C    0  0  0  0  0  0  0  0  0  0  0  0
    1.1270   -4.9820    0.0000 C    0  0  1  0  0  0  0  0  0  0  0  0
    0.3020   -4.9820    0.0000 O    0  0  0  0  0  0  0  0  0  0  0  0
    0.0470   -4.1974    0.0000 C    0  0  0  0  0  0  0  0  0  0  0  0
   -0.7376   -3.9425    0.0000 O    0  0  0  0  0  0  0  0  0  0  0  0
    1.6119   -5.6495    0.0000 C    0  0  0  0  0  0  0  0  0  0  0  0
    2.4324   -5.5632    0.0000 N    0  0  0  0  0  0  0  0  0  0  0  0
    2.9173   -6.2307    0.0000 C    0  0  0  0  0  0  0  0  0  0  0  0
    2.5817   -6.9844    0.0000 O    0  0  0  0  0  0  0  0  0  0  0  0
    3.7378   -6.1445    0.0000 C    0  0  0  0  0  0  0  0  0  0  0  0
    4.1503   -5.4300    0.0000 C    0  0  0  0  0  0  0  0  0  0  0  0
    4.9572   -5.6015    0.0000 C    0  0  0  0  0  0  0  0  0  0  0  0
    5.0435   -6.4220    0.0000 C    0  0  0  0  0  0  0  0  0  0  0  0
    4.2898   -6.7575    0.0000 S    0  0  0  0  0  0  0  0  0  0  0  0
    5.7580   -6.8345    0.0000 Cl   0  0  0  0  0  0  0  0  0  0  0  0
  1  2  2  0  0  0  0
  2  3  1  0  0  0  0
  3  4  2  0  0  0  0
  4  5  1  0  0  0  0
  5  6  2  0  0  0  0
  1  6  1  0  0  0  0
  6  7  1  0  0  0  0
  7  8  1  0  0  0  0
  8  9  1  0  0  0  0
  9 10  1  0  0  0  0
 10 11  1  0  0  0  0
 11 12  1  0  0  0  0
  7 12  1  0  0  0  0
 12 13  2  0  0  0  0
  3 14  1  0  0  0  0
 14 15  1  0  0  0  0
 15 16  1  0  0  0  0
 16 17  1  0  0  0  0
 17 18  1  0  0  0  0
 14 18  1  0  0  0  0
 18 19  2  0  0  0  0
 16 20  1  6  0  0  0
 20 21  1  0  0  0  0
 21 22  1  0  0  0  0
 22 23  2  0  0  0  0
 22 24  1  0  0  0  0
 24 25  2  0  0  0  0
 25 26  1  0  0  0  0
 26 27  2  0  0  0  0
 27 28  1  0  0  0  0
 24 28  1  0  0  0  0
 27 29  1  0  0  0  0
M  END
> <DRUGBANK_ID>
DB06228

> <DRUG_GROUPS>
approved

> <GENERIC_NAME>
Rivaroxaban

> <BRANDS>
Xarelto

> <CHEMICAL_FORMULA>
C19H18ClN3O5S

> <MOLECULAR_WEIGHT>
435.881

> <EXACT_MASS>
435.065569098

> <IUPAC_NAME>
5-chloro-N-{[(5S)-2-oxo-3-[4-(3-oxomorpholin-4-yl)phenyl]-1,3-oxazolidin-5-yl]methyl}thiophene-2-carboxamide

> <IUPAC_TRADITIONAL_NAME>
rivaroxaban

> <INCHI_IDENTIFIER>
InChI=1S/C19H18ClN3O5S/c20-16-6-5-15(29-16)18(25)21-9-14-10-23(19(26)28-14)13-3-1-12(2-4-13)22-7-8-27-11-17(22)24/h1-6,14H,7-11H2,(H,21,25)/t14-/m0/s1

> <INCHI_KEY>
InChIKey=KGFYHTZWPPHNLQ-AWEZNQCLSA-N

> <SMILES>
ClC1=CC=C(S1)C(=O)NC[C@H]1CN(C(=O)O1)C1=CC=C(C=C1)N1CCOCC1=O

> <JCHEM_ACCEPTOR_COUNT>
5

> <JCHEM_DONOR_COUNT>
1

> <JCHEM_ACIDIC_PKA>
13.6

> <JCHEM_BASIC_PKA>
-1.6

> <JCHEM_PHYSIOLOGICAL_CHARGE>
0

> <ALOGPS_LOGP>
1.74

> <JCHEM_LOGP>
1.9

> <ALOGPS_LOGS>
-4.6

> <JCHEM_POLARIZABILITY>
43.53

> <JCHEM_POLAR_SURFACE_AREA>
88.18

> <JCHEM_REFRACTIVITY>
104.74

> <JCHEM_ROTATABLE_BOND_COUNT>
5

> <ALOGPS_SOLUBILITY>
1.00e-02 g/l __ 

$$$$
