2RB
  Mrv0541 02241213072D          

 23 24  0  0  0  0            999 V2000
   -2.5911    4.3273    0.0000 C    0  0  0  0  0  0  0  0  0  0  0  0
   -1.8766    3.9148    0.0000 O    0  0  0  0  0  0  0  0  0  0  0  0
   -1.8766    3.0898    0.0000 C    0  0  0  0  0  0  0  0  0  0  0  0
   -1.1621    2.6773    0.0000 C    0  0  0  0  0  0  0  0  0  0  0  0
   -1.1621    1.8523    0.0000 C    0  0  0  0  0  0  0  0  0  0  0  0
   -2.5911    2.6773    0.0000 C    0  0  0  0  0  0  0  0  0  0  0  0
   -2.5911    1.8523    0.0000 C    0  0  0  0  0  0  0  0  0  0  0  0
   -1.8766    1.4398    0.0000 C    0  0  0  0  0  0  0  0  0  0  0  0
   -1.8766    0.6148    0.0000 C    0  0  0  0  0  0  0  0  0  0  0  0
   -2.5911    0.2023    0.0000 O    0  0  0  0  0  0  0  0  0  0  0  0
   -1.1621    0.2023    0.0000 N    0  0  0  0  0  0  0  0  0  0  0  0
   -1.1621   -0.6227    0.0000 N    0  0  0  0  0  0  0  0  0  0  0  0
   -0.4476   -1.0352    0.0000 C    0  0  0  0  0  0  0  0  0  0  0  0
   -0.4476   -1.8602    0.0000 C    0  0  0  0  0  0  0  0  0  0  0  0
    0.2668   -2.2727    0.0000 C    0  0  0  0  0  0  0  0  0  0  0  0
    0.2668   -3.0977    0.0000 C    0  0  0  0  0  0  0  0  0  0  0  0
    0.9813   -3.5102    0.0000 Br   0  0  0  0  0  0  0  0  0  0  0  0
   -0.4476   -3.5102    0.0000 C    0  0  0  0  0  0  0  0  0  0  0  0
   -0.4476   -4.3352    0.0000 O    0  0  0  0  0  0  0  0  0  0  0  0
   -1.1621   -3.0977    0.0000 C    0  0  0  0  0  0  0  0  0  0  0  0
   -1.8766   -3.5102    0.0000 Br   0  0  0  0  0  0  0  0  0  0  0  0
   -1.1621   -2.2727    0.0000 C    0  0  0  0  0  0  0  0  0  0  0  0
   -1.8766   -1.8602    0.0000 O    0  0  0  0  0  0  0  0  0  0  0  0
  1  2  1  0  0  0  0
  2  3  1  0  0  0  0
  3  4  2  0  0  0  0
  3  6  1  0  0  0  0
  4  5  1  0  0  0  0
  5  8  2  0  0  0  0
  6  7  2  0  0  0  0
  7  8  1  0  0  0  0
  8  9  1  0  0  0  0
  9 10  2  0  0  0  0
  9 11  1  0  0  0  0
 11 12  1  0  0  0  0
 12 13  2  0  0  0  0
 13 14  1  0  0  0  0
 14 15  2  0  0  0  0
 14 22  1  0  0  0  0
 15 16  1  0  0  0  0
 16 17  1  0  0  0  0
 16 18  2  0  0  0  0
 18 19  1  0  0  0  0
 18 20  1  0  0  0  0
 20 21  1  0  0  0  0
 20 22  2  0  0  0  0
 22 23  1  0  0  0  0
M  END
> <DRUGBANK_ID>
DB06978

> <DRUG_GROUPS>
experimental

> <GENERIC_NAME>
N'-[(1E)-(3,5-dibromo-2,4-dihydroxyphenyl)methylidene]-4-methoxybenzohydrazide

> <CHEMICAL_FORMULA>
C15H12Br2N2O4

> <MOLECULAR_WEIGHT>
444.075

> <EXACT_MASS>
441.916382176

> <IUPAC_NAME>
N'-[(1E)-(3,5-dibromo-2,4-dihydroxyphenyl)methylidene]-4-methoxybenzohydrazide

> <IUPAC_TRADITIONAL_NAME>
N'-[(1E)-(3,5-dibromo-2,4-dihydroxyphenyl)methylidene]-4-methoxybenzohydrazide

> <INCHI_IDENTIFIER>
InChI=1S/C15H12Br2N2O4/c1-23-10-4-2-8(3-5-10)15(22)19-18-7-9-6-11(16)14(21)12(17)13(9)20/h2-7,20-21H,1H3,(H,19,22)/b18-7+

> <INCHI_KEY>
InChIKey=BMGXNERTVNWBJG-CNHKJKLMSA-N

> <SMILES>
COC1=CC=C(C=C1)C(=O)N\N=C\C1=CC(Br)=C(O)C(Br)=C1O

> <JCHEM_ACCEPTOR_COUNT>
5

> <JCHEM_DONOR_COUNT>
3

> <JCHEM_ACIDIC_PKA>
6.44

> <JCHEM_BASIC_PKA>
0.011

> <JCHEM_PHYSIOLOGICAL_CHARGE>
-1

> <ALOGPS_LOGP>
4.38

> <JCHEM_LOGP>
3.74

> <ALOGPS_LOGS>
-4.2

> <JCHEM_POLARIZABILITY>
36.36

> <JCHEM_POLAR_SURFACE_AREA>
91.15

> <JCHEM_REFRACTIVITY>
93.91

> <JCHEM_ROTATABLE_BOND_COUNT>
4

> <ALOGPS_SOLUBILITY>
2.51e-02 g/l __ 

$$$$
