71388
  Mrv0541 02231218162D          

 60 62  0  0  0  0            999 V2000
    3.4619   -0.6020    0.0000 C   0  0  0  0  0  0  0  0  0  0  0  0
    4.1763   -0.1895    0.0000 C   0  0  0  0  0  0  0  0  0  0  0  0
    4.1763    0.6355    0.0000 C   0  0  0  0  0  0  0  0  0  0  0  0
    3.4619    1.0480    0.0000 C   0  0  0  0  0  0  0  0  0  0  0  0
    2.7474    0.6355    0.0000 C   0  0  0  0  0  0  0  0  0  0  0  0
    2.7474   -0.1895    0.0000 C   0  0  0  0  0  0  0  0  0  0  0  0
    3.4619   -1.4270    0.0000 O   0  0  0  0  0  0  0  0  0  0  0  0
    2.7474   -1.8395    0.0000 C   0  0  0  0  0  0  0  0  0  0  0  0
    2.7474   -2.6645    0.0000 C   0  0  0  0  0  0  0  0  0  0  0  0
    2.0329   -3.0770    0.0000 O   0  0  0  0  0  0  0  0  0  0  0  0
    1.3184   -2.6645    0.0000 H   0  0  0  0  0  0  0  0  0  0  0  0
    3.4619    1.8730    0.0000 C   0  0  0  0  0  0  0  0  0  0  0  0
    2.6369    1.8730    0.0000 C   0  0  0  0  0  0  0  0  0  0  0  0
    4.2869    1.8730    0.0000 C   0  0  0  0  0  0  0  0  0  0  0  0
    3.4619    2.6980    0.0000 C   0  0  0  0  0  0  0  0  0  0  0  0
    2.7474    3.1105    0.0000 C   0  0  0  0  0  0  0  0  0  0  0  0
    2.0329    3.5230    0.0000 C   0  0  0  0  0  0  0  0  0  0  0  0
    3.1599    3.8250    0.0000 C   0  0  0  0  0  0  0  0  0  0  0  0
    2.3349    2.3961    0.0000 C   0  0  0  0  0  0  0  0  0  0  0  0
    2.0329   -0.6020    0.0000 C   0  0  0  0  0  0  0  0  0  0  0  0
   -0.1186   -0.6129    0.0000 C   0  0  0  0  0  0  0  0  0  0  0  0
    0.5959   -0.2004    0.0000 C   0  0  0  0  0  0  0  0  0  0  0  0
    0.5959    0.6246    0.0000 C   0  0  0  0  0  0  0  0  0  0  0  0
   -0.1186    1.0371    0.0000 C   0  0  0  0  0  0  0  0  0  0  0  0
   -0.8331    0.6246    0.0000 C   0  0  0  0  0  0  0  0  0  0  0  0
   -0.8331   -0.2004    0.0000 C   0  0  0  0  0  0  0  0  0  0  0  0
   -0.1186   -1.4379    0.0000 O   0  0  0  0  0  0  0  0  0  0  0  0
   -0.8331   -1.8504    0.0000 C   0  0  0  0  0  0  0  0  0  0  0  0
   -0.8331   -2.6754    0.0000 C   0  0  0  0  0  0  0  0  0  0  0  0
   -1.5476   -3.0879    0.0000 O   0  0  0  0  0  0  0  0  0  0  0  0
   -2.2620   -2.6754    0.0000 H   0  0  0  0  0  0  0  0  0  0  0  0
   -0.1186    1.8621    0.0000 C   0  0  0  0  0  0  0  0  0  0  0  0
   -0.9436    1.8621    0.0000 C   0  0  0  0  0  0  0  0  0  0  0  0
    0.7064    1.8621    0.0000 C   0  0  0  0  0  0  0  0  0  0  0  0
   -0.1186    2.6871    0.0000 C   0  0  0  0  0  0  0  0  0  0  0  0
   -0.8331    3.0996    0.0000 C   0  0  0  0  0  0  0  0  0  0  0  0
   -1.5476    3.5121    0.0000 C   0  0  0  0  0  0  0  0  0  0  0  0
   -0.4206    3.8141    0.0000 C   0  0  0  0  0  0  0  0  0  0  0  0
   -1.2456    2.3852    0.0000 C   0  0  0  0  0  0  0  0  0  0  0  0
   -1.5476   -0.6129    0.0000 C   0  0  0  0  0  0  0  0  0  0  0  0
    7.3948   -0.4361    0.0000 C   0  0  0  0  0  0  0  0  0  0  0  0
    8.1092   -0.0236    0.0000 C   0  0  0  0  0  0  0  0  0  0  0  0
    8.1092    0.8014    0.0000 C   0  0  0  0  0  0  0  0  0  0  0  0
    7.3948    1.2139    0.0000 C   0  0  0  0  0  0  0  0  0  0  0  0
    6.6803    0.8014    0.0000 C   0  0  0  0  0  0  0  0  0  0  0  0
    6.6803   -0.0236    0.0000 C   0  0  0  0  0  0  0  0  0  0  0  0
    7.3948   -1.2611    0.0000 O   0  0  0  0  0  0  0  0  0  0  0  0
    6.6803   -1.6736    0.0000 C   0  0  0  0  0  0  0  0  0  0  0  0
    6.6803   -2.4986    0.0000 C   0  0  0  0  0  0  0  0  0  0  0  0
    5.9658   -2.9111    0.0000 O   0  0  0  0  0  0  0  0  0  0  0  0
    5.2514   -2.4986    0.0000 H   0  0  0  0  0  0  0  0  0  0  0  0
    7.3948    2.0389    0.0000 C   0  0  0  0  0  0  0  0  0  0  0  0
    6.5698    2.0389    0.0000 C   0  0  0  0  0  0  0  0  0  0  0  0
    8.2198    2.0389    0.0000 C   0  0  0  0  0  0  0  0  0  0  0  0
    7.3948    2.8639    0.0000 C   0  0  0  0  0  0  0  0  0  0  0  0
    6.6803    3.2764    0.0000 C   0  0  0  0  0  0  0  0  0  0  0  0
    5.9658    3.6889    0.0000 C   0  0  0  0  0  0  0  0  0  0  0  0
    7.0928    3.9909    0.0000 C   0  0  0  0  0  0  0  0  0  0  0  0
    6.2678    2.5620    0.0000 C   0  0  0  0  0  0  0  0  0  0  0  0
    5.9658   -0.4361    0.0000 C   0  0  0  0  0  0  0  0  0  0  0  0
  1  2  1  0  0  0  0
  2  3  2  0  0  0  0
  3  4  1  0  0  0  0
  4  5  2  0  0  0  0
  5  6  1  0  0  0  0
  1  6  2  0  0  0  0
  1  7  1  0  0  0  0
  7  8  1  0  0  0  0
  8  9  1  0  0  0  0
  9 10  1  0  0  0  0
 10 11  1  0  0  0  0
  4 12  1  0  0  0  0
 12 13  1  0  0  0  0
 12 14  1  0  0  0  0
 12 15  1  0  0  0  0
 15 16  1  0  0  0  0
 16 17  1  0  0  0  0
 16 18  1  0  0  0  0
 16 19  1  0  0  0  0
  6 20  1  0  0  0  0
 21 22  1  0  0  0  0
 22 23  2  0  0  0  0
 23 24  1  0  0  0  0
 24 25  2  0  0  0  0
 25 26  1  0  0  0  0
 21 26  2  0  0  0  0
 21 27  1  0  0  0  0
 27 28  1  0  0  0  0
 28 29  1  0  0  0  0
 29 30  1  0  0  0  0
 30 31  1  0  0  0  0
 24 32  1  0  0  0  0
 32 33  1  0  0  0  0
 32 34  1  0  0  0  0
 32 35  1  0  0  0  0
 35 36  1  0  0  0  0
 36 37  1  0  0  0  0
 36 38  1  0  0  0  0
 36 39  1  0  0  0  0
 26 40  1  0  0  0  0
 22 20  1  0  0  0  0
 41 42  1  0  0  0  0
 42 43  2  0  0  0  0
 43 44  1  0  0  0  0
 44 45  2  0  0  0  0
 45 46  1  0  0  0  0
 41 46  2  0  0  0  0
 41 47  1  0  0  0  0
 47 48  1  0  0  0  0
 48 49  1  0  0  0  0
 49 50  1  0  0  0  0
 50 51  1  0  0  0  0
 44 52  1  0  0  0  0
 52 53  1  0  0  0  0
 52 54  1  0  0  0  0
 52 55  1  0  0  0  0
 55 56  1  0  0  0  0
 56 57  1  0  0  0  0
 56 58  1  0  0  0  0
 56 59  1  0  0  0  0
 46 60  1  0  0  0  0
 60  2  1  0  0  0  0
M  END
> <DRUGBANK_ID>
DB06439

> <DRUG_GROUPS>
approved; investigational

> <GENERIC_NAME>
Tyloxapol

> <BRANDS>
Alevaire

> <INCHI_IDENTIFIER>
InChI=1S/C51H80O6/c1-35-25-41(50(13,14)33-47(5,6)7)29-37(44(35)56-23-20-53)27-39-31-42(51(15,16)34-48(8,9)10)30-38(45(39)57-24-21-54)26-36-28-40(17-18-43(36)55-22-19-52)49(11,12)32-46(2,3)4/h17-18,25,28-31,52-54H,19-24,26-27,32-34H2,1-16H3

> <INCHI_KEY>
InChIKey=UTFVNNPSMPINLE-UHFFFAOYSA-N __ 

$$$$
