
  Mrv0541 02231218142D          

 10  9  0  0  1  0            999 V2000
    2.8073   -0.9817    0.0000 S   0  0  0  0  0  0  0  0  0  0  0  0
    2.0928    0.2558    0.0000 O   0  0  0  0  0  0  0  0  0  0  0  0
    2.8073    1.4932    0.0000 O   0  0  0  0  0  0  0  0  0  0  0  0
    4.9505   -0.5693    0.0000 O   0  0  0  0  0  0  0  0  0  0  0  0
    4.2362    0.6682    0.0000 N   0  0  0  0  0  0  0  0  0  0  0  0
    3.5217    0.2558    0.0000 C   0  0  1  0  0  0  0  0  0  0  0  0
    3.5217   -0.5693    0.0000 C   0  0  0  0  0  0  0  0  0  0  0  0
    2.8073    0.6682    0.0000 C   0  0  0  0  0  0  0  0  0  0  0  0
    4.9505    0.2558    0.0000 C   0  0  0  0  0  0  0  0  0  0  0  0
    5.6651    0.6682    0.0000 C   0  0  0  0  0  0  0  0  0  0  0  0
  1  7  1  0  0  0  0
  2  8  1  0  0  0  0
  3  8  2  0  0  0  0
  4  9  2  0  0  0  0
  6  5  1  1  0  0  0
  5  9  1  0  0  0  0
  6  7  1  0  0  0  0
  6  8  1  0  0  0  0
  9 10  1  0  0  0  0
M  END
> <DRUGBANK_ID>
DB06151

> <DRUG_GROUPS>
approved

> <GENERIC_NAME>
Acetylcysteine

> <SYNONYMS>
N-acetylcysteine

> <BRANDS>
Acetadote; Fluimucil; Lysox; Mucolysin; Mucomyst; Parvolex

> <CHEMICAL_FORMULA>
C5H9NO3S

> <MOLECULAR_WEIGHT>
163.195

> <EXACT_MASS>
163.030313849

> <IUPAC_NAME>
(2R)-2-acetamido-3-sulfanylpropanoic acid

> <IUPAC_TRADITIONAL_NAME>
acetylcysteine

> <INCHI_IDENTIFIER>
InChI=1S/C5H9NO3S/c1-3(7)6-4(2-10)5(8)9/h4,10H,2H2,1H3,(H,6,7)(H,8,9)/t4-/m0/s1

> <INCHI_KEY>
InChIKey=PWKSKIMOESPYIA-BYPYZUCNSA-N

> <SMILES>
CC(=O)N[C@@H](CS)C(O)=O

> <JCHEM_ACCEPTOR_COUNT>
3

> <JCHEM_DONOR_COUNT>
3

> <JCHEM_ACIDIC_PKA>
3.82

> <JCHEM_BASIC_PKA>
-1.5

> <JCHEM_PHYSIOLOGICAL_CHARGE>
-1

> <ALOGPS_LOGP>
-0.03

> <JCHEM_LOGP>
-0.71

> <ALOGPS_LOGS>
-1.5

> <JCHEM_POLARIZABILITY>
15.34

> <JCHEM_POLAR_SURFACE_AREA>
66.4

> <JCHEM_REFRACTIVITY>
37.67

> <JCHEM_ROTATABLE_BOND_COUNT>
3

> <ALOGPS_SOLUBILITY>
5.09e+00 g/l __ 

$$$$
