164
  Mrv0541 02241213022D          

 19 19  0  0  0  0            999 V2000
   -2.4034    0.4108    0.0000 O   0  0  0  0  0  0  0  0  0  0  0  0
   -1.6889   -0.0017    0.0000 C   0  0  0  0  0  0  0  0  0  0  0  0
   -1.6889   -0.8267    0.0000 O   0  0  0  0  0  0  0  0  0  0  0  0
   -0.9744    0.4108    0.0000 C   0  0  1  0  0  0  0  0  0  0  0  0
   -0.9744    1.2358    0.0000 C   0  0  1  0  0  0  0  0  0  0  0  0
   -0.2600    1.6483    0.0000 C   0  0  0  0  0  0  0  0  0  0  0  0
    0.4545    1.2358    0.0000 C   0  0  0  0  0  0  0  0  0  0  0  0
    0.4545    0.4108    0.0000 C   0  0  0  0  0  0  0  0  0  0  0  0
   -1.6889    1.6483    0.0000 O   0  0  0  0  0  0  0  0  0  0  0  0
   -0.2600   -0.0017    0.0000 C   0  0  0  0  0  0  0  0  0  0  0  0
   -0.2600   -0.8267    0.0000 C   0  0  0  0  0  0  0  0  0  0  0  0
   -0.9744   -1.2392    0.0000 O   0  0  0  0  0  0  0  0  0  0  0  0
    0.4545   -1.2392    0.0000 C   0  0  0  0  0  0  0  0  0  0  0  0
    1.1690   -0.8267    0.0000 C   0  0  0  0  0  0  0  0  0  0  0  0
    1.8835   -1.2392    0.0000 C   0  0  0  0  0  0  0  0  0  0  0  0
    2.5979   -0.8267    0.0000 O   0  0  0  0  0  0  0  0  0  0  0  0
    1.8835   -2.0642    0.0000 O   0  0  0  0  0  0  0  0  0  0  0  0
   -1.5495    0.5122    0.0000 H   0  0  0  0  0  0  0  0  0  0  0  0
   -1.5495    1.1344    0.0000 H   0  0  0  0  0  0  0  0  0  0  0  0
  1  2  2  0  0  0  0
  2  3  1  0  0  0  0
  4  2  1  1  0  0  0
  4  5  1  0  0  0  0
  4 10  1  0  0  0  0
  4 18  1  6  0  0  0
  5  6  1  0  0  0  0
  5  9  1  6  0  0  0
  5 19  1  1  0  0  0
  6  7  2  0  0  0  0
  7  8  1  0  0  0  0
  8 10  2  0  0  0  0
 10 11  1  0  0  0  0
 11 12  2  0  0  0  0
 11 13  1  0  0  0  0
 13 14  1  0  0  0  0
 14 15  1  0  0  0  0
 15 16  1  0  0  0  0
 15 17  2  0  0  0  0
M  END
> <DRUGBANK_ID>
DB06864

> <DRUG_GROUPS>
experimental

> <GENERIC_NAME>
2-(3-CARBOXYPROPIONYL)-6-HYDROXY-CYCLOHEXA-2,4-DIENE CARBOXYLIC ACID

> <CHEMICAL_FORMULA>
C11H12O6

> <MOLECULAR_WEIGHT>
240.2094

> <EXACT_MASS>
240.063388116

> <IUPAC_NAME>
(1R,6R)-2-(3-carboxypropanoyl)-6-hydroxycyclohexa-2,4-diene-1-carboxylic acid

> <IUPAC_TRADITIONAL_NAME>
shchc

> <INCHI_IDENTIFIER>
InChI=1S/C11H12O6/c12-7(4-5-9(14)15)6-2-1-3-8(13)10(6)11(16)17/h1-3,8,10,13H,4-5H2,(H,14,15)(H,16,17)/t8-,10-/m1/s1

> <INCHI_KEY>
InChIKey=QJYRAJSESKVEAE-PSASIEDQSA-N

> <SMILES>
[H][C@@]1(O)C=CC=C(C(=O)CCC(O)=O)[C@@]1([H])C(O)=O

> <JCHEM_ACCEPTOR_COUNT>
6

> <JCHEM_DONOR_COUNT>
3

> <JCHEM_ACIDIC_PKA>
3.63

> <JCHEM_BASIC_PKA>
-3.1

> <JCHEM_PHYSIOLOGICAL_CHARGE>
-2

> <ALOGPS_LOGP>
-0.41

> <JCHEM_LOGP>
-0.32

> <ALOGPS_LOGS>
-1.9

> <JCHEM_POLARIZABILITY>
22.36

> <JCHEM_POLAR_SURFACE_AREA>
111.9

> <JCHEM_REFRACTIVITY>
57.88

> <JCHEM_ROTATABLE_BOND_COUNT>
5

> <ALOGPS_SOLUBILITY>
2.73e+00 g/l __ 

$$$$
