Structure #1
  Mrv0541 02241212482D          

 16 18  0  0  0  0            999 V2000
   -0.7145    1.2375    0.0000 C   0  0  0  0  0  0  0  0  0  0  0  0
   -0.7145    2.0625    0.0000 C   0  0  0  0  0  0  0  0  0  0  0  0
    2.1434    1.2375    0.0000 C   0  0  0  0  0  0  0  0  0  0  0  0
    0.0000    0.8250    0.0000 C   0  0  0  0  0  0  0  0  0  0  0  0
    1.4289    0.8250    0.0000 C   0  0  0  0  0  0  0  0  0  0  0  0
    2.1434    2.0625    0.0000 C   0  0  0  0  0  0  0  0  0  0  0  0
    0.0000    2.4750    0.0000 C   0  0  0  0  0  0  0  0  0  0  0  0
    3.0366    4.7045    0.0000 C   0  0  0  0  0  0  0  0  0  0  0  0
    3.4491    3.9900    0.0000 C   0  0  0  0  0  0  0  0  0  0  0  0
    1.4289    3.3000    0.0000 C   0  0  0  0  0  0  0  0  0  0  0  0
    0.7145    1.2375    0.0000 C   0  0  0  0  0  0  0  0  0  0  0  0
    1.4289    2.4750    0.0000 C   0  0  0  0  0  0  0  0  0  0  0  0
    0.7145    2.0625    0.0000 C   0  0  0  0  0  0  0  0  0  0  0  0
    2.1434    3.7125    0.0000 C   0  0  0  0  0  0  0  0  0  0  0  0
    2.2296    4.5330    0.0000 N   0  0  0  0  0  0  0  0  0  0  0  0
    2.8971    3.3769    0.0000 N   0  0  0  0  0  0  0  0  0  0  0  0
  1  2  2  0  0  0  0
  1  4  1  0  0  0  0
  2  7  1  0  0  0  0
  3  5  2  0  0  0  0
  3  6  1  0  0  0  0
  4 11  2  0  0  0  0
  5 11  1  0  0  0  0
  6 12  2  0  0  0  0
  7 13  2  0  0  0  0
  8  9  1  0  0  0  0
  8 15  1  0  0  0  0
  9 16  1  0  0  0  0
 10 12  1  0  0  0  0
 10 14  1  0  0  0  0
 11 13  1  0  0  0  0
 12 13  1  0  0  0  0
 14 15  2  0  0  0  0
 14 16  1  0  0  0  0
M  END
> <DRUGBANK_ID>
DB06711

> <DRUG_GROUPS>
approved

> <GENERIC_NAME>
Naphazoline

> <SALTS>
Naphazoline hydrochloride

> <BRANDS>
Albalon

> <CHEMICAL_FORMULA>
C14H14N2

> <MOLECULAR_WEIGHT>
210.2744

> <EXACT_MASS>
210.115698458

> <IUPAC_NAME>
2-(naphthalen-1-ylmethyl)-4,5-dihydro-1H-imidazole

> <IUPAC_TRADITIONAL_NAME>
naphazoline

> <INCHI_IDENTIFIER>
InChI=1S/C14H14N2/c1-2-7-13-11(4-1)5-3-6-12(13)10-14-15-8-9-16-14/h1-7H,8-10H2,(H,15,16)

> <INCHI_KEY>
InChIKey=CNIIGCLFLJGOGP-UHFFFAOYSA-N

> <SMILES>
C(C1=NCCN1)C1=CC=CC2=CC=CC=C12

> <JCHEM_ACCEPTOR_COUNT>
2

> <JCHEM_DONOR_COUNT>
1

> <JCHEM_BASIC_PKA>
10.19

> <JCHEM_PHYSIOLOGICAL_CHARGE>
1

> <ALOGPS_LOGP>
3.44

> <JCHEM_LOGP>
2.19

> <ALOGPS_LOGS>
-3.7

> <JCHEM_POLARIZABILITY>
23.77

> <JCHEM_POLAR_SURFACE_AREA>
24.39

> <JCHEM_REFRACTIVITY>
65.52

> <JCHEM_ROTATABLE_BOND_COUNT>
2

> <ALOGPS_SOLUBILITY>
3.81e-02 g/l __ 

$$$$
