
  Mrv0541 02231218172D          

 23 23  0  0  1  0            999 V2000
    6.3321    0.0847    0.0000 O   0  0  0  0  0  0  0  0  0  0  0  0
    5.4419   -2.3760    0.0000 O   0  0  0  0  0  0  0  0  0  0  0  0
    6.5979   -1.5360    0.0000 O   0  0  0  0  0  0  0  0  0  0  0  0
    4.8800    2.7898    0.0000 O   0  0  0  0  0  0  0  0  0  0  0  0
    4.1655    1.5523    0.0000 N   0  0  0  0  0  0  0  0  0  0  0  0
    3.4280    0.0847    0.0000 N   0  0  0  0  0  0  0  0  0  0  0  0
    2.0302   -0.2124    0.0000 N   0  0  0  0  0  0  0  0  0  0  0  0
    2.9863   -1.2743    0.0000 N   0  0  0  0  0  0  0  0  0  0  0  0
    4.8800    0.3147    0.0000 C   0  0  2  0  0  0  0  0  0  0  0  0
    5.5474   -0.1702    0.0000 C   0  0  1  0  0  0  0  0  0  0  0  0
    4.2125   -0.1702    0.0000 C   0  0  1  0  0  0  0  0  0  0  0  0
    4.8800    1.1398    0.0000 C   0  0  0  0  0  0  0  0  0  0  0  0
    5.2925   -0.9548    0.0000 C   0  0  2  0  0  0  0  0  0  0  0  0
    4.4675   -0.9548    0.0000 C   0  0  0  0  0  0  0  0  0  0  0  0
    5.5945    1.5523    0.0000 C   0  0  0  0  0  0  0  0  0  0  0  0
    5.5945    2.3773    0.0000 C   0  0  0  0  0  0  0  0  0  0  0  0
    6.3090    1.1398    0.0000 C   0  0  0  0  0  0  0  0  0  0  0  0
    5.7774   -1.6223    0.0000 C   0  0  0  0  0  0  0  0  0  0  0  0
    6.3090    2.7898    0.0000 C   0  0  0  0  0  0  0  0  0  0  0  0
    7.0235    1.5523    0.0000 C   0  0  0  0  0  0  0  0  0  0  0  0
    4.1655    2.3773    0.0000 C   0  0  0  0  0  0  0  0  0  0  0  0
    2.8148   -0.4673    0.0000 C   0  0  0  0  0  0  0  0  0  0  0  0
    3.4511    2.7898    0.0000 C   0  0  0  0  0  0  0  0  0  0  0  0
 10  1  1  6  0  0  0
  2 18  1  0  0  0  0
  3 18  2  0  0  0  0
  4 21  2  0  0  0  0
  5 12  1  0  0  0  0
  5 21  1  0  0  0  0
 11  6  1  1  0  0  0
  6 22  2  0  0  0  0
  7 22  1  0  0  0  0
  8 22  1  0  0  0  0
  9 10  1  0  0  0  0
  9 11  1  0  0  0  0
  9 12  1  6  0  0  0
 10 13  1  0  0  0  0
 11 14  1  0  0  0  0
 12 15  1  0  0  0  0
 13 14  1  0  0  0  0
 13 18  1  1  0  0  0
 15 16  1  0  0  0  0
 15 17  1  0  0  0  0
 16 19  1  0  0  0  0
 17 20  1  0  0  0  0
 21 23  1  0  0  0  0
M  END
> <DRUGBANK_ID>
DB06614

> <DRUG_GROUPS>
investigational

> <GENERIC_NAME>
Peramivir

> <CHEMICAL_FORMULA>
C15H28N4O4

> <MOLECULAR_WEIGHT>
328.4072

> <EXACT_MASS>
328.211055404

> <IUPAC_NAME>
(1S,2S,3S,4R)-4-[(diaminomethylidene)amino]-3-(1-acetamido-2-ethylbutyl)-2-hydroxycyclopentane-1-carboxylic acid

> <IUPAC_TRADITIONAL_NAME>
peramivir

> <INCHI_IDENTIFIER>
InChI=1S/C15H28N4O4/c1-4-8(5-2)12(18-7(3)20)11-10(19-15(16)17)6-9(13(11)21)14(22)23/h8-13,21H,4-6H2,1-3H3,(H,18,20)(H,22,23)(H4,16,17,19)/t9-,10+,11+,12?,13+/m0/s1

> <INCHI_KEY>
InChIKey=XRQDFNLINLXZLB-GKWMMFDUSA-N

> <SMILES>
CCC(CC)C(NC(C)=O)[C@@H]1[C@H](O)[C@H](C[C@H]1N=C(N)N)C(O)=O

> <JCHEM_ACCEPTOR_COUNT>
7

> <JCHEM_DONOR_COUNT>
5

> <JCHEM_ACIDIC_PKA>
4.18

> <JCHEM_BASIC_PKA>
11.7

> <JCHEM_PHYSIOLOGICAL_CHARGE>
0

> <ALOGPS_LOGP>
-0.22

> <JCHEM_LOGP>
-2.2

> <ALOGPS_LOGS>
-2.7

> <JCHEM_POLARIZABILITY>
35.16

> <JCHEM_POLAR_SURFACE_AREA>
151.03

> <JCHEM_REFRACTIVITY>
84.17

> <JCHEM_ROTATABLE_BOND_COUNT>
7

> <ALOGPS_SOLUBILITY>
7.05e-01 g/l __ 

$$$$
