252
  Mrv0541 02241213052D          

 18 17  0  0  0  0            999 V2000
   -2.6565    1.0060    0.0000 C   0  0  0  0  0  0  0  0  0  0  0  0
   -2.0610    0.4350    0.0000 C   0  0  0  0  0  0  0  0  0  0  0  0
   -1.2688    0.6652    0.0000 C   0  0  0  0  0  0  0  0  0  0  0  0
   -0.6733    0.0942    0.0000 C   0  0  0  0  0  0  0  0  0  0  0  0
    0.1189    0.3244    0.0000 C   0  0  0  0  0  0  0  0  0  0  0  0
    0.7144   -0.2466    0.0000 C   0  0  0  0  0  0  0  0  0  0  0  0
    1.5066   -0.0164    0.0000 C   0  0  0  0  0  0  0  0  0  0  0  0
    2.1021   -0.5874    0.0000 C   0  0  0  0  0  0  0  0  0  0  0  0
    2.8943   -0.3572    0.0000 C   0  0  0  0  0  0  0  0  0  0  0  0
    3.1245   -1.1495    0.0000 P   0  0  0  0  0  0  0  0  0  0  0  0
    3.9168   -0.9193    0.0000 O   0  0  0  0  0  0  0  0  0  0  0  0
    2.3323   -1.3797    0.0000 O   0  0  0  0  0  0  0  0  0  0  0  0
    3.3547   -1.9417    0.0000 O   0  0  0  0  0  0  0  0  0  0  0  0
    2.6641    0.4350    0.0000 P   0  0  0  0  0  0  0  0  0  0  0  0
    2.4339    1.2272    0.0000 O   0  0  0  0  0  0  0  0  0  0  0  0
    3.4564    0.6652    0.0000 O   0  0  0  0  0  0  0  0  0  0  0  0
    1.8719    0.2048    0.0000 O   0  0  0  0  0  0  0  0  0  0  0  0
    3.6866   -0.1270    0.0000 O   0  0  0  0  0  0  0  0  0  0  0  0
  1  2  1  0  0  0  0
  2  3  1  0  0  0  0
  3  4  1  0  0  0  0
  4  5  1  0  0  0  0
  5  6  1  0  0  0  0
  6  7  1  0  0  0  0
  7  8  1  0  0  0  0
  8  9  1  0  0  0  0
  9 10  1  0  0  0  0
  9 18  1  0  0  0  0
  9 14  1  0  0  0  0
 10 13  2  0  0  0  0
 10 11  1  0  0  0  0
 10 12  1  0  0  0  0
 14 16  2  0  0  0  0
 14 17  1  0  0  0  0
 14 15  1  0  0  0  0
M  END
> <DRUGBANK_ID>
DB06931

> <DRUG_GROUPS>
experimental

> <GENERIC_NAME>
(1-HYDROXYNONANE-1,1-DIYL)BIS(PHOSPHONIC ACID)

> <CHEMICAL_FORMULA>
C9H22O7P2

> <MOLECULAR_WEIGHT>
304.2143

> <EXACT_MASS>
304.084076082

> <IUPAC_NAME>
(1-hydroxy-1-phosphonononyl)phosphonic acid

> <IUPAC_TRADITIONAL_NAME>
1-hydroxy-1-phosphonononylphosphonic acid

> <INCHI_IDENTIFIER>
InChI=1S/C9H22O7P2/c1-2-3-4-5-6-7-8-9(10,17(11,12)13)18(14,15)16/h10H,2-8H2,1H3,(H2,11,12,13)(H2,14,15,16)

> <INCHI_KEY>
InChIKey=COHUUYPEYRMWTH-UHFFFAOYSA-N

> <SMILES>
CCCCCCCCC(O)(P(O)(O)=O)P(O)(O)=O

> <JCHEM_ACCEPTOR_COUNT>
7

> <JCHEM_DONOR_COUNT>
5

> <JCHEM_ACIDIC_PKA>
0.69

> <JCHEM_BASIC_PKA>
-5.2

> <JCHEM_PHYSIOLOGICAL_CHARGE>
-2

> <ALOGPS_LOGP>
0.7

> <JCHEM_LOGP>
0.81

> <ALOGPS_LOGS>
-1.6

> <JCHEM_POLARIZABILITY>
27.94

> <JCHEM_POLAR_SURFACE_AREA>
135.29

> <JCHEM_REFRACTIVITY>
66.79

> <JCHEM_ROTATABLE_BOND_COUNT>
9

> <ALOGPS_SOLUBILITY>
8.20e+00 g/l __ 

$$$$
