196
  Mrv0541 02241213032D          

 21 23  0  0  0  0            999 V2000
   -2.4178   -1.2311    0.0000 C   0  0  0  0  0  0  0  0  0  0  0  0
   -2.4178   -0.4061    0.0000 C   0  0  0  0  0  0  0  0  0  0  0  0
   -1.7033    0.0064    0.0000 C   0  0  0  0  0  0  0  0  0  0  0  0
   -0.9888   -0.4061    0.0000 C   0  0  0  0  0  0  0  0  0  0  0  0
   -0.9888   -1.2311    0.0000 C   0  0  0  0  0  0  0  0  0  0  0  0
   -1.7033   -1.6436    0.0000 C   0  0  0  0  0  0  0  0  0  0  0  0
   -3.1322   -1.6436    0.0000 O   0  0  0  0  0  0  0  0  0  0  0  0
   -3.1322    0.0064    0.0000 F   0  0  0  0  0  0  0  0  0  0  0  0
   -0.2743    0.0064    0.0000 C   0  0  0  0  0  0  0  0  0  0  0  0
    0.4401   -0.4061    0.0000 C   0  0  0  0  0  0  0  0  0  0  0  0
    1.1546    0.0064    0.0000 C   0  0  0  0  0  0  0  0  0  0  0  0
    1.1546    0.8314    0.0000 C   0  0  0  0  0  0  0  0  0  0  0  0
    0.4401    1.2439    0.0000 C   0  0  0  0  0  0  0  0  0  0  0  0
   -0.2743    0.8314    0.0000 C   0  0  0  0  0  0  0  0  0  0  0  0
    1.8691   -0.4061    0.0000 C   0  0  0  0  0  0  0  0  0  0  0  0
    2.5835    0.0064    0.0000 C   0  0  0  0  0  0  0  0  0  0  0  0
    2.5835    0.8314    0.0000 C   0  0  0  0  0  0  0  0  0  0  0  0
    1.8691    1.2439    0.0000 C   0  0  0  0  0  0  0  0  0  0  0  0
    0.4401    2.0689    0.0000 C   0  0  0  0  0  0  0  0  0  0  0  0
    0.4401    2.8939    0.0000 N   0  0  0  0  0  0  0  0  0  0  0  0
    3.2980    1.2439    0.0000 O   0  0  0  0  0  0  0  0  0  0  0  0
  1  2  1  0  0  0  0
  1  6  2  0  0  0  0
  1  7  1  0  0  0  0
  2  3  2  0  0  0  0
  2  8  1  0  0  0  0
  3  4  1  0  0  0  0
  4  5  2  0  0  0  0
  4  9  1  0  0  0  0
  5  6  1  0  0  0  0
  9 10  2  0  0  0  0
  9 14  1  0  0  0  0
 10 11  1  0  0  0  0
 11 12  1  0  0  0  0
 11 15  2  0  0  0  0
 12 13  1  0  0  0  0
 12 18  2  0  0  0  0
 13 14  2  0  0  0  0
 13 19  1  0  0  0  0
 15 16  1  0  0  0  0
 16 17  2  0  0  0  0
 17 18  1  0  0  0  0
 17 21  1  0  0  0  0
 19 20  3  0  0  0  0
M  END
> <DRUGBANK_ID>
DB06875

> <DRUG_GROUPS>
experimental

> <GENERIC_NAME>
3-(3-FLUORO-4-HYDROXYPHENYL)-7-HYDROXY-1-NAPHTHONITRILE

> <CHEMICAL_FORMULA>
C17H10FNO2

> <MOLECULAR_WEIGHT>
279.2652

> <EXACT_MASS>
279.069556774

> <IUPAC_NAME>
3-(3-fluoro-4-hydroxyphenyl)-7-hydroxynaphthalene-1-carbonitrile

> <IUPAC_TRADITIONAL_NAME>
3-(3-fluoro-4-hydroxyphenyl)-7-hydroxynaphthalene-1-carbonitrile

> <INCHI_IDENTIFIER>
InChI=1S/C17H10FNO2/c18-16-7-10(2-4-17(16)21)12-5-11-1-3-14(20)8-15(11)13(6-12)9-19/h1-8,20-21H

> <INCHI_KEY>
InChIKey=NSSOSHDCWCMNDM-UHFFFAOYSA-N

> <SMILES>
OC1=CC=C2C=C(C=C(C#N)C2=C1)C1=CC=C(O)C(F)=C1

> <JCHEM_ACCEPTOR_COUNT>
3

> <JCHEM_DONOR_COUNT>
2

> <JCHEM_ACIDIC_PKA>
7.93

> <JCHEM_BASIC_PKA>
-6.2

> <JCHEM_PHYSIOLOGICAL_CHARGE>
0

> <ALOGPS_LOGP>
4.24

> <JCHEM_LOGP>
4

> <ALOGPS_LOGS>
-4.7

> <JCHEM_POLARIZABILITY>
28.23

> <JCHEM_POLAR_SURFACE_AREA>
64.25

> <JCHEM_REFRACTIVITY>
77.54

> <JCHEM_ROTATABLE_BOND_COUNT>
1

> <ALOGPS_SOLUBILITY>
5.47e-03 g/l __ 

$$$$
