
  Mrv0541 02241214192D          

 38 41  0  0  1  0            999 V2000
    5.9746    4.3611    0.0000 C   0  0  0  0  0  0  0  0  0  0  0  0
    6.0341    3.5382    0.0000 C   0  0  0  0  0  0  0  0  0  0  0  0
    5.3513    3.0752    0.0000 C   0  0  0  0  0  0  0  0  0  0  0  0
    5.4108    2.2524    0.0000 C   0  0  0  0  0  0  0  0  0  0  0  0
    6.1532    1.8925    0.0000 O   0  0  0  0  0  0  0  0  0  0  0  0
    4.8978    1.8460    0.0000 O   0  0  0  0  0  0  0  0  0  0  0  0
    4.7875    0.9666    0.0000 C   0  0  2  0  0  0  0  0  0  0  0  0
    5.0168    0.1741    0.0000 C   0  0  0  0  0  0  0  0  0  0  0  0
    4.3340   -0.2889    0.0000 C   0  0  0  0  0  0  0  0  0  0  0  0
    3.6826    0.2174    0.0000 C   0  0  2  0  0  0  0  0  0  0  0  0
    3.9629    0.9934    0.0000 C   0  0  2  0  0  0  0  0  0  0  0  0
    3.4311    1.6241    0.0000 C   0  0  0  0  0  0  0  0  0  0  0  0
    2.6190    1.4789    0.0000 C   0  0  1  0  0  0  0  0  0  0  0  0
    2.3387    0.7029    0.0000 C   0  0  1  0  0  0  0  0  0  0  0  0
    2.8705    0.0722    0.0000 C   0  0  1  0  0  0  0  0  0  0  0  0
    2.5902   -0.7037    0.0000 C   0  0  0  0  0  0  0  0  0  0  0  0
    1.7781   -0.8489    0.0000 C   0  0  1  0  0  0  0  0  0  0  0  0
    1.2463   -0.2182    0.0000 C   0  0  0  0  0  0  0  0  0  0  0  0
    0.4342   -0.3634    0.0000 C   0  0  0  0  0  0  0  0  0  0  0  0
   -0.0976    0.2673    0.0000 C   0  0  0  0  0  0  0  0  0  0  0  0
   -0.9098    0.1221    0.0000 O   0  0  0  0  0  0  0  0  0  0  0  0
    0.1827    1.0432    0.0000 C   0  0  0  0  0  0  0  0  0  0  0  0
    0.9948    1.1884    0.0000 C   0  0  0  0  0  0  0  0  0  0  0  0
    1.5266    0.5577    0.0000 C   0  0  2  0  0  0  0  0  0  0  0  0
    1.4672    1.3619    0.0000 C   0  0  0  0  0  0  0  0  0  0  0  0
    1.4978   -1.6248    0.0000 F   0  0  0  0  0  0  0  0  0  0  0  0
    2.1376    1.3559    0.0000 F   0  0  0  0  0  0  0  0  0  0  0  0
    2.0872    2.1096    0.0000 O   0  0  0  0  0  0  0  0  0  0  0  0
    4.2096    1.7924    0.0000 C   0  0  0  0  0  0  0  0  0  0  0  0
    5.5996    1.1118    0.0000 C   0  0  0  0  0  0  0  0  0  0  0  0
    6.2825    1.5747    0.0000 O   0  0  0  0  0  0  0  0  0  0  0  0
    6.1315    0.4811    0.0000 C   0  0  0  0  0  0  0  0  0  0  0  0
    5.8512   -0.2949    0.0000 O   0  0  0  0  0  0  0  0  0  0  0  0
    6.3830   -0.9256    0.0000 C   0  0  0  0  0  0  0  0  0  0  0  0
    7.1951   -0.7804    0.0000 O   0  0  0  0  0  0  0  0  0  0  0  0
    6.1027   -1.7015    0.0000 C   0  0  0  0  0  0  0  0  0  0  0  0
    3.3407   -0.5961    0.0000 H   0  0  0  0  0  0  0  0  0  0  0  0
    3.6826   -0.6076    0.0000 H   0  0  0  0  0  0  0  0  0  0  0  0
  1  2  1  0  0  0  0
  2  3  1  0  0  0  0
  3  4  1  0  0  0  0
  4  5  2  0  0  0  0
  4  6  1  0  0  0  0
  7  6  1  6  0  0  0
  7  8  1  0  0  0  0
  8  9  1  0  0  0  0
 10  9  1  0  0  0  0
 10 11  1  0  0  0  0
  7 11  1  0  0  0  0
 11 12  1  0  0  0  0
 12 13  1  0  0  0  0
 13 14  1  0  0  0  0
 14 15  1  0  0  0  0
 10 15  1  0  0  0  0
 15 16  1  0  0  0  0
 16 17  1  0  0  0  0
 17 18  1  0  0  0  0
 18 19  2  0  0  0  0
 19 20  1  0  0  0  0
 20 21  2  0  0  0  0
 20 22  1  0  0  0  0
 22 23  2  0  0  0  0
 23 24  1  0  0  0  0
 18 24  1  0  0  0  0
 14 24  1  0  0  0  0
 24 25  1  1  0  0  0
 17 26  1  6  0  0  0
 14 27  1  6  0  0  0
 13 28  1  1  0  0  0
 11 29  1  1  0  0  0
  7 30  1  0  0  0  0
 30 31  2  0  0  0  0
 30 32  1  0  0  0  0
 32 33  1  0  0  0  0
 33 34  1  0  0  0  0
 34 35  2  0  0  0  0
 34 36  1  0  0  0  0
 15 37  1  1  0  0  0
 10 38  1  6  0  0  0
M  END
> <DRUGBANK_ID>
DB06781

> <DRUG_GROUPS>
approved

> <GENERIC_NAME>
Difluprednate

> <SYNONYMS>
DFBA; Difluoroprednisolone butyrate acetate

> <BRANDS>
Durezol

> <CHEMICAL_FORMULA>
C27H34F2O7

> <MOLECULAR_WEIGHT>
508.5515

> <EXACT_MASS>
508.227259852

> <IUPAC_NAME>
(1R,2S,8S,10S,11S,14R,15S,17S)-14-[2-(acetyloxy)acetyl]-1,8-difluoro-17-hydroxy-2,15-dimethyl-5-oxotetracyclo[8.7.0.0^{2,7}.0^{11,15}]heptadeca-3,6-dien-14-yl butanoate

> <IUPAC_TRADITIONAL_NAME>
(1R,2S,8S,10S,11S,14R,15S,17S)-14-[2-(acetyloxy)acetyl]-1,8-difluoro-17-hydroxy-2,15-dimethyl-5-oxotetracyclo[8.7.0.0^{2,7}.0^{11,15}]heptadeca-3,6-dien-14-yl butanoate

> <INCHI_IDENTIFIER>
InChI=1S/C27H34F2O7/c1-5-6-23(34)36-26(22(33)14-35-15(2)30)10-8-17-18-12-20(28)19-11-16(31)7-9-24(19,3)27(18,29)21(32)13-25(17,26)4/h7,9,11,17-18,20-21,32H,5-6,8,10,12-14H2,1-4H3/t17-,18-,20-,21-,24-,25-,26-,27-/m0/s1

> <INCHI_KEY>
InChIKey=WYQPLTPSGFELIB-JTQPXKBDSA-N

> <SMILES>
[H][C@@]12CC[C@](OC(=O)CCC)(C(=O)COC(C)=O)[C@@]1(C)C[C@H](O)[C@@]1(F)[C@@]2([H])C[C@H](F)C2=CC(=O)C=C[C@]12C

> <JCHEM_ACCEPTOR_COUNT>
5

> <JCHEM_DONOR_COUNT>
1

> <JCHEM_ACIDIC_PKA>
13.55

> <JCHEM_BASIC_PKA>
-3.4

> <JCHEM_PHYSIOLOGICAL_CHARGE>
0

> <ALOGPS_LOGP>
3.28

> <JCHEM_LOGP>
3

> <ALOGPS_LOGS>
-4.7

> <JCHEM_POLARIZABILITY>
51.46

> <JCHEM_POLAR_SURFACE_AREA>
106.97

> <JCHEM_REFRACTIVITY>
125.38

> <JCHEM_ROTATABLE_BOND_COUNT>
8

> <ALOGPS_SOLUBILITY>
9.70e-03 g/l __ 

$$$$
