4BE
  Mrv0541 02241213122D          

 22 23  0  0  0  0            999 V2000
    2.2670    0.1323    0.0000 C    0  0  0  0  0  0  0  0  0  0  0  0
    2.9815   -0.2802    0.0000 C    0  0  0  0  0  0  0  0  0  0  0  0
    2.9815   -1.1052    0.0000 C    0  0  0  0  0  0  0  0  0  0  0  0
    3.6959   -1.5177    0.0000 Br   0  0  0  0  0  0  0  0  0  0  0  0
    2.2670   -1.5177    0.0000 C    0  0  0  0  0  0  0  0  0  0  0  0
    1.5525   -1.1052    0.0000 C    0  0  0  0  0  0  0  0  0  0  0  0
    1.5525   -0.2802    0.0000 C    0  0  0  0  0  0  0  0  0  0  0  0
    0.8380    0.1323    0.0000 C    0  0  0  0  0  0  0  0  0  0  0  0
    0.8380    0.9573    0.0000 O    0  0  0  0  0  0  0  0  0  0  0  0
    0.1236   -0.2802    0.0000 N    0  0  0  0  0  0  0  0  0  0  0  0
   -0.5909    0.1323    0.0000 N    0  0  0  0  0  0  0  0  0  0  0  0
   -1.3054   -0.2802    0.0000 C    0  0  0  0  0  0  0  0  0  0  0  0
   -2.0198    0.1323    0.0000 C    0  0  0  0  0  0  0  0  0  0  0  0
   -2.7343   -0.2802    0.0000 C    0  0  0  0  0  0  0  0  0  0  0  0
   -3.4488    0.1323    0.0000 C    0  0  0  0  0  0  0  0  0  0  0  0
   -4.1633   -0.2802    0.0000 Br   0  0  0  0  0  0  0  0  0  0  0  0
   -3.4488    0.9573    0.0000 C    0  0  0  0  0  0  0  0  0  0  0  0
   -4.1633    1.3698    0.0000 O    0  0  0  0  0  0  0  0  0  0  0  0
   -2.7343    1.3698    0.0000 C    0  0  0  0  0  0  0  0  0  0  0  0
   -2.7343    2.1948    0.0000 Br   0  0  0  0  0  0  0  0  0  0  0  0
   -2.0198    0.9573    0.0000 C    0  0  0  0  0  0  0  0  0  0  0  0
   -1.3054    1.3698    0.0000 O    0  0  0  0  0  0  0  0  0  0  0  0
  1  2  2  0  0  0  0
  1  7  1  0  0  0  0
  2  3  1  0  0  0  0
  3  4  1  0  0  0  0
  3  5  2  0  0  0  0
  5  6  1  0  0  0  0
  6  7  2  0  0  0  0
  7  8  1  0  0  0  0
  8  9  2  0  0  0  0
  8 10  1  0  0  0  0
 10 11  1  0  0  0  0
 11 12  2  0  0  0  0
 12 13  1  0  0  0  0
 13 14  2  0  0  0  0
 13 21  1  0  0  0  0
 14 15  1  0  0  0  0
 15 16  1  0  0  0  0
 15 17  2  0  0  0  0
 17 18  1  0  0  0  0
 17 19  1  0  0  0  0
 19 20  1  0  0  0  0
 19 21  2  0  0  0  0
 21 22  1  0  0  0  0
M  END
> <DRUGBANK_ID>
DB07098

> <DRUG_GROUPS>
experimental

> <GENERIC_NAME>
4-bromo-N'-[(1E)-(3,5-dibromo-2,4-dihydroxyphenyl)methylidene]benzohydrazide

> <CHEMICAL_FORMULA>
C14H9Br3N2O3

> <MOLECULAR_WEIGHT>
492.945

> <EXACT_MASS>
489.816330105

> <IUPAC_NAME>
4-bromo-N'-[(1E)-(3,5-dibromo-2,4-dihydroxyphenyl)methylidene]benzohydrazide

> <IUPAC_TRADITIONAL_NAME>
4-bromo-N'-[(1E)-(3,5-dibromo-2,4-dihydroxyphenyl)methylidene]benzohydrazide

> <INCHI_IDENTIFIER>
InChI=1S/C14H9Br3N2O3/c15-9-3-1-7(2-4-9)14(22)19-18-6-8-5-10(16)13(21)11(17)12(8)20/h1-6,20-21H,(H,19,22)/b18-6+

> <INCHI_KEY>
InChIKey=HKNUDJDAVYPTGD-NGYBGAFCSA-N

> <SMILES>
OC1=C(Br)C=C(\C=N\NC(=O)C2=CC=C(Br)C=C2)C(O)=C1Br

> <JCHEM_ACCEPTOR_COUNT>
4

> <JCHEM_DONOR_COUNT>
3

> <JCHEM_ACIDIC_PKA>
6.44

> <JCHEM_BASIC_PKA>
-0.21

> <JCHEM_PHYSIOLOGICAL_CHARGE>
-1

> <ALOGPS_LOGP>
4.95

> <JCHEM_LOGP>
4.66

> <ALOGPS_LOGS>
-4.7

> <JCHEM_POLARIZABILITY>
36.99

> <JCHEM_POLAR_SURFACE_AREA>
81.92

> <JCHEM_REFRACTIVITY>
95.07

> <JCHEM_ROTATABLE_BOND_COUNT>
3

> <ALOGPS_SOLUBILITY>
9.12e-03 g/l __ 

$$$$
