DEC
  Mrv0541 02241213332D          

 14 13  0  0  0  0            999 V2000
   -3.2153    0.2062    0.0000 C   0  0  0  0  0  0  0  0  0  0  0  0
   -3.9299   -0.2062    0.0000 O   0  0  0  0  0  0  0  0  0  0  0  0
   -3.2153    1.0314    0.0000 O   0  0  0  0  0  0  0  0  0  0  0  0
   -2.5008   -0.2063    0.0000 C   0  0  0  0  0  0  0  0  0  0  0  0
   -1.7863    0.2062    0.0000 C   0  0  0  0  0  0  0  0  0  0  0  0
   -1.0718   -0.2063    0.0000 C   0  0  0  0  0  0  0  0  0  0  0  0
   -0.3572    0.2062    0.0000 C   0  0  0  0  0  0  0  0  0  0  0  0
    0.3572   -0.2063    0.0000 C   0  0  0  0  0  0  0  0  0  0  0  0
    1.0718    0.2062    0.0000 C   0  0  0  0  0  0  0  0  0  0  0  0
    1.7863   -0.2063    0.0000 C   0  0  0  0  0  0  0  0  0  0  0  0
    2.5008    0.2062    0.0000 C   0  0  0  0  0  0  0  0  0  0  0  0
    3.2153   -0.2063    0.0000 C   0  0  0  0  0  0  0  0  0  0  0  0
    3.9299    0.2062    0.0000 O   0  0  0  0  0  0  0  0  0  0  0  0
    3.2153   -1.0314    0.0000 O   0  0  0  0  0  0  0  0  0  0  0  0
  1  2  2  0  0  0  0
  1  3  1  0  0  0  0
  1  4  1  0  0  0  0
  4  5  1  0  0  0  0
  5  6  1  0  0  0  0
  6  7  1  0  0  0  0
  7  8  1  0  0  0  0
  8  9  1  0  0  0  0
  9 10  1  0  0  0  0
 10 11  1  0  0  0  0
 11 12  1  0  0  0  0
 12 13  2  0  0  0  0
 12 14  1  0  0  0  0
M  END
> <DRUGBANK_ID>
DB07645

> <DRUG_GROUPS>
experimental

> <GENERIC_NAME>
SEBACIC ACID

> <CHEMICAL_FORMULA>
C10H18O4

> <MOLECULAR_WEIGHT>
202.2475

> <EXACT_MASS>
202.120509064

> <IUPAC_NAME>
decanedioic acid

> <IUPAC_TRADITIONAL_NAME>
sebacic acid

> <INCHI_IDENTIFIER>
InChI=1S/C10H18O4/c11-9(12)7-5-3-1-2-4-6-8-10(13)14/h1-8H2,(H,11,12)(H,13,14)

> <INCHI_KEY>
InChIKey=CXMXRPHRNRROMY-UHFFFAOYSA-N

> <SMILES>
OC(=O)CCCCCCCCC(O)=O

> <JCHEM_ACCEPTOR_COUNT>
4

> <JCHEM_DONOR_COUNT>
2

> <JCHEM_ACIDIC_PKA>
4.72

> <JCHEM_PHYSIOLOGICAL_CHARGE>
-2

> <ALOGPS_LOGP>
1.93

> <JCHEM_LOGP>
2.27

> <ALOGPS_LOGS>
-2.4

> <JCHEM_POLARIZABILITY>
22.6

> <JCHEM_POLAR_SURFACE_AREA>
74.6

> <JCHEM_REFRACTIVITY>
51.14

> <JCHEM_ROTATABLE_BOND_COUNT>
9

> <ALOGPS_SOLUBILITY>
9.12e-01 g/l __ 

$$$$
