IAC
  Mrv0541 02241213452D          

 13 14  0  0  0  0            999 V2000
   -1.6444   -0.5175    0.0000 C   0  0  0  0  0  0  0  0  0  0  0  0
   -1.6444    0.3075    0.0000 C   0  0  0  0  0  0  0  0  0  0  0  0
   -0.9299    0.7200    0.0000 C   0  0  0  0  0  0  0  0  0  0  0  0
   -0.2155    0.3075    0.0000 C   0  0  0  0  0  0  0  0  0  0  0  0
   -0.2155   -0.5175    0.0000 C   0  0  0  0  0  0  0  0  0  0  0  0
   -0.9299   -0.9300    0.0000 C   0  0  0  0  0  0  0  0  0  0  0  0
   -2.4290    0.5624    0.0000 C   0  0  0  0  0  0  0  0  0  0  0  0
   -2.9139   -0.1050    0.0000 C   0  0  0  0  0  0  0  0  0  0  0  0
   -2.6840    1.3471    0.0000 C   0  0  0  0  0  0  0  0  0  0  0  0
   -2.1319    1.9602    0.0000 C   0  0  0  0  0  0  0  0  0  0  0  0
   -2.4290   -0.7724    0.0000 N   0  0  0  0  0  0  0  0  0  0  0  0
   -2.3869    2.7448    0.0000 O   0  0  0  0  0  0  0  0  0  0  0  0
   -1.3250    1.7886    0.0000 O   0  0  0  0  0  0  0  0  0  0  0  0
  1 11  1  0  0  0  0
  1  2  2  0  0  0  0
  1  6  1  0  0  0  0
  2  7  1  0  0  0  0
  2  3  1  0  0  0  0
  3  4  2  0  0  0  0
  4  5  1  0  0  0  0
  5  6  2  0  0  0  0
  7  9  1  0  0  0  0
  7  8  2  0  0  0  0
  8 11  1  0  0  0  0
  9 10  1  0  0  0  0
 10 13  2  0  0  0  0
 10 12  1  0  0  0  0
M  END
> <DRUGBANK_ID>
DB07950

> <DRUG_GROUPS>
experimental

> <GENERIC_NAME>
1H-INDOL-3-YLACETIC ACID

> <CHEMICAL_FORMULA>
C10H9NO2

> <MOLECULAR_WEIGHT>
175.184

> <EXACT_MASS>
175.063328537

> <IUPAC_NAME>
2-(1H-indol-3-yl)acetic acid

> <IUPAC_TRADITIONAL_NAME>
indole-3-acetic acid

> <INCHI_IDENTIFIER>
InChI=1S/C10H9NO2/c12-10(13)5-7-6-11-9-4-2-1-3-8(7)9/h1-4,6,11H,5H2,(H,12,13)

> <INCHI_KEY>
InChIKey=SEOVTRFCIGRIMH-UHFFFAOYSA-N

> <SMILES>
OC(=O)CC1=CNC2=C1C=CC=C2

> <JCHEM_ACCEPTOR_COUNT>
2

> <JCHEM_DONOR_COUNT>
2

> <JCHEM_ACIDIC_PKA>
4.66

> <JCHEM_PHYSIOLOGICAL_CHARGE>
-1

> <ALOGPS_LOGP>
1.87

> <JCHEM_LOGP>
1.71

> <ALOGPS_LOGS>
-2.1

> <JCHEM_POLARIZABILITY>
17.8

> <JCHEM_POLAR_SURFACE_AREA>
53.09

> <JCHEM_REFRACTIVITY>
48.45

> <JCHEM_ROTATABLE_BOND_COUNT>
2

> <ALOGPS_SOLUBILITY>
1.38e+00 g/l __ 

$$$$
