BAF
  Mrv0541 02241213252D          

 20 19  0  0  0  0            999 V2000
   -3.0427    0.0703    0.0000 N   0  0  0  0  0  0  0  0  0  0  0  0
   -3.7573   -0.3422    0.0000 C   0  0  0  0  0  0  0  0  0  0  0  0
   -4.4718    0.0703    0.0000 O   0  0  0  0  0  0  0  0  0  0  0  0
   -2.3283   -0.3422    0.0000 C   0  0  2  0  0  0  0  0  0  0  0  0
   -2.3283   -1.1673    0.0000 C   0  0  0  0  0  0  0  0  0  0  0  0
   -1.6137    0.0703    0.0000 N   0  0  0  0  0  0  0  0  0  0  0  0
   -0.8992   -0.3422    0.0000 C   0  0  0  0  0  0  0  0  0  0  0  0
   -0.8992   -1.1673    0.0000 O   0  0  0  0  0  0  0  0  0  0  0  0
   -0.1847    0.0703    0.0000 C   0  0  2  0  0  0  0  0  0  0  0  0
   -0.1847    0.8954    0.0000 C   0  0  0  0  0  0  0  0  0  0  0  0
    0.5298   -0.3422    0.0000 N   0  0  0  0  0  0  0  0  0  0  0  0
    1.2444    0.0703    0.0000 C   0  0  0  0  0  0  0  0  0  0  0  0
    1.2444    0.8954    0.0000 O   0  0  0  0  0  0  0  0  0  0  0  0
    1.9589   -0.3422    0.0000 O   0  0  0  0  0  0  0  0  0  0  0  0
    2.6734    0.0703    0.0000 C   0  0  0  0  0  0  0  0  0  0  0  0
    3.3880    0.4828    0.0000 C   0  0  0  0  0  0  0  0  0  0  0  0
    3.0859   -0.6442    0.0000 C   0  0  0  0  0  0  0  0  0  0  0  0
    2.2609    0.7848    0.0000 C   0  0  0  0  0  0  0  0  0  0  0  0
   -2.8340   -0.6342    0.0000 H   0  0  0  0  0  0  0  0  0  0  0  0
   -0.6904    0.3622    0.0000 H   0  0  0  0  0  0  0  0  0  0  0  0
  1  2  1  0  0  0  0
  1  4  1  0  0  0  0
  2  3  2  0  0  0  0
  4  5  1  1  0  0  0
  4  6  1  0  0  0  0
  4 19  1  6  0  0  0
  6  7  1  0  0  0  0
  7  8  2  0  0  0  0
  7  9  1  0  0  0  0
  9 10  1  6  0  0  0
  9 11  1  0  0  0  0
  9 20  1  1  0  0  0
 11 12  1  0  0  0  0
 12 13  2  0  0  0  0
 12 14  1  0  0  0  0
 14 15  1  0  0  0  0
 15 16  1  0  0  0  0
 15 17  1  0  0  0  0
 15 18  1  0  0  0  0
M  END
> <DRUGBANK_ID>
DB07433

> <DRUG_GROUPS>
experimental

> <GENERIC_NAME>
(TERT-BUTYLOXYCARBONYL)-ALANYL-AMINO ETHYL-FORMAMIDE

> <CHEMICAL_FORMULA>
C11H21N3O4

> <MOLECULAR_WEIGHT>
259.3021

> <EXACT_MASS>
259.153206175

> <IUPAC_NAME>
tert-butyl N-[(1S)-1-{[(1S)-1-formamidoethyl]carbamoyl}ethyl]carbamate

> <IUPAC_TRADITIONAL_NAME>
tert-butyl N-[(1S)-1-{[(1S)-1-formamidoethyl]carbamoyl}ethyl]carbamate

> <INCHI_IDENTIFIER>
InChI=1S/C11H21N3O4/c1-7(9(16)14-8(2)12-6-15)13-10(17)18-11(3,4)5/h6-8H,1-5H3,(H,12,15)(H,13,17)(H,14,16)/t7-,8-/m0/s1

> <INCHI_KEY>
InChIKey=MNUWNIQGBRBQRE-YUMQZZPRSA-N

> <SMILES>
[H][C@](C)(NC=O)NC(=O)[C@]([H])(C)NC(=O)OC(C)(C)C

> <JCHEM_ACCEPTOR_COUNT>
3

> <JCHEM_DONOR_COUNT>
3

> <JCHEM_ACIDIC_PKA>
12.68

> <JCHEM_BASIC_PKA>
-1.4

> <JCHEM_PHYSIOLOGICAL_CHARGE>
0

> <ALOGPS_LOGP>
-0.18

> <JCHEM_LOGP>
-0.36

> <ALOGPS_LOGS>
-2.6

> <JCHEM_POLARIZABILITY>
26.83

> <JCHEM_POLAR_SURFACE_AREA>
96.53

> <JCHEM_REFRACTIVITY>
64.64

> <JCHEM_ROTATABLE_BOND_COUNT>
6

> <ALOGPS_SOLUBILITY>
7.16e-01 g/l __ 

$$$$
