C26
  Mrv0541 02241213292D          

 14 13  0  0  0  0            999 V2000
   -3.2901   -0.8627    0.0000 O   0  0  0  0  0  0  0  0  0  0  0  0
   -2.5756   -0.4501    0.0000 S   0  0  0  0  0  0  0  0  0  0  0  0
   -2.1631   -1.1646    0.0000 O   0  0  0  0  0  0  0  0  0  0  0  0
   -2.9881    0.2644    0.0000 O   0  0  0  0  0  0  0  0  0  0  0  0
   -1.8610   -0.0376    0.0000 O   0  0  0  0  0  0  0  0  0  0  0  0
   -1.1465   -0.4501    0.0000 C   0  0  0  0  0  0  0  0  0  0  0  0
   -0.4320   -0.0376    0.0000 C   0  0  2  0  0  0  0  0  0  0  0  0
   -0.4320    0.7875    0.0000 C   0  0  0  0  0  0  0  0  0  0  0  0
    0.2825    1.2000    0.0000 C   0  0  0  0  0  0  0  0  0  0  0  0
    0.2825   -0.4501    0.0000 C   0  0  0  0  0  0  0  0  0  0  0  0
    0.9971   -0.0376    0.0000 C   0  0  0  0  0  0  0  0  0  0  0  0
    1.7115   -0.4501    0.0000 C   0  0  0  0  0  0  0  0  0  0  0  0
    2.4261   -0.0376    0.0000 C   0  0  0  0  0  0  0  0  0  0  0  0
   -0.9378    0.2544    0.0000 H   0  0  0  0  0  0  0  0  0  0  0  0
  1  2  2  0  0  0  0
  2  3  2  0  0  0  0
  2  4  1  0  0  0  0
  2  5  1  0  0  0  0
  5  6  1  0  0  0  0
  6  7  1  0  0  0  0
  7  8  1  0  0  0  0
  7 10  1  1  0  0  0
  7 14  1  1  0  0  0
  8  9  1  0  0  0  0
 10 11  1  0  0  0  0
 11 12  1  0  0  0  0
 12 13  1  0  0  0  0
M  END
> <DRUGBANK_ID>
DB07518

> <DRUG_GROUPS>
experimental

> <GENERIC_NAME>
(2R)-2-ETHYL-1-HEXANESULFONIC ACID

> <CHEMICAL_FORMULA>
C8H18O4S

> <MOLECULAR_WEIGHT>
210.291

> <EXACT_MASS>
210.092579754

> <IUPAC_NAME>
{[(2R)-2-ethylhexyl]oxy}sulfonic acid

> <IUPAC_TRADITIONAL_NAME>
[(2R)-2-ethylhexyl]oxysulfonic acid

> <INCHI_IDENTIFIER>
InChI=1S/C8H18O4S/c1-3-5-6-8(4-2)7-12-13(9,10)11/h8H,3-7H2,1-2H3,(H,9,10,11)/t8-/m1/s1

> <INCHI_KEY>
InChIKey=MHGOKSLTIUHUBF-MRVPVSSYSA-N

> <SMILES>
[H][C@@](CC)(CCCC)COS(O)(=O)=O

> <JCHEM_ACCEPTOR_COUNT>
3

> <JCHEM_DONOR_COUNT>
1

> <JCHEM_ACIDIC_PKA>
-1.2

> <JCHEM_PHYSIOLOGICAL_CHARGE>
-1

> <ALOGPS_LOGP>
0.93

> <JCHEM_LOGP>
2.56

> <ALOGPS_LOGS>
-2.5

> <JCHEM_POLARIZABILITY>
22.47

> <JCHEM_POLAR_SURFACE_AREA>
63.6

> <JCHEM_REFRACTIVITY>
50.4

> <JCHEM_ROTATABLE_BOND_COUNT>
7

> <ALOGPS_SOLUBILITY>
7.21e-01 g/l __ 

$$$$
