357
  Mrv0541 02241213082D          

 24 25  0  0  0  0            999 V2000
    0.7546    1.4268    0.0000 C   0  0  0  0  0  0  0  0  0  0  0  0
    0.7546    0.6018    0.0000 C   0  0  0  0  0  0  0  0  0  0  0  0
    0.0401    0.1893    0.0000 C   0  0  0  0  0  0  0  0  0  0  0  0
   -0.6744    0.6018    0.0000 C   0  0  0  0  0  0  0  0  0  0  0  0
    1.4690    1.8393    0.0000 O   0  0  0  0  0  0  0  0  0  0  0  0
   -1.3889    0.1893    0.0000 C   0  0  0  0  0  0  0  0  0  0  0  0
   -2.1033    0.6018    0.0000 C   0  0  0  0  0  0  0  0  0  0  0  0
   -0.6744   -1.0482    0.0000 C   0  0  0  0  0  0  0  0  0  0  0  0
    0.0401   -0.6357    0.0000 C   0  0  0  0  0  0  0  0  0  0  0  0
   -0.6744    1.4268    0.0000 C   0  0  0  0  0  0  0  0  0  0  0  0
   -1.3889    1.8393    0.0000 C   0  0  0  0  0  0  0  0  0  0  0  0
    0.0401    1.8393    0.0000 N   0  0  0  0  0  0  0  0  0  0  0  0
    1.4690    0.1893    0.0000 N   0  0  0  0  0  0  0  0  0  0  0  0
    1.4690   -0.6357    0.0000 C   0  0  0  0  0  0  0  0  0  0  0  0
    2.1835    0.6018    0.0000 C   0  0  0  0  0  0  0  0  0  0  0  0
    2.8980    0.1893    0.0000 C   0  0  0  0  0  0  0  0  0  0  0  0
    3.6124    0.6018    0.0000 O   0  0  0  0  0  0  0  0  0  0  0  0
    4.3269    0.1893    0.0000 C   0  0  0  0  0  0  0  0  0  0  0  0
   -0.6744   -1.8732    0.0000 C   0  0  0  0  0  0  0  0  0  0  0  0
   -1.3889   -2.2857    0.0000 C   0  0  0  0  0  0  0  0  0  0  0  0
   -2.1033   -1.8732    0.0000 C   0  0  0  0  0  0  0  0  0  0  0  0
   -2.1033   -1.0482    0.0000 C   0  0  0  0  0  0  0  0  0  0  0  0
   -2.8178   -0.6357    0.0000 C   0  0  0  0  0  0  0  0  0  0  0  0
   -1.3889   -0.6357    0.0000 C   0  0  0  0  0  0  0  0  0  0  0  0
  1  2  1  0  0  0  0
  1  5  2  0  0  0  0
  1 12  1  0  0  0  0
  2  3  2  0  0  0  0
  2 13  1  0  0  0  0
  3  4  1  0  0  0  0
  3  9  1  0  0  0  0
  4  6  1  0  0  0  0
  4 10  2  0  0  0  0
  6  7  1  0  0  0  0
  8  9  1  0  0  0  0
  8 19  2  0  0  0  0
  8 24  1  0  0  0  0
 10 11  1  0  0  0  0
 10 12  1  0  0  0  0
 13 14  1  0  0  0  0
 13 15  1  0  0  0  0
 15 16  1  0  0  0  0
 16 17  1  0  0  0  0
 17 18  1  0  0  0  0
 19 20  1  0  0  0  0
 20 21  2  0  0  0  0
 21 22  1  0  0  0  0
 22 23  1  0  0  0  0
 22 24  2  0  0  0  0
M  END
> <DRUGBANK_ID>
DB07018

> <DRUG_GROUPS>
experimental

> <GENERIC_NAME>
5-ETHYL-3-[(2-METHOXYETHYL)METHYLAMINO]-6-METHYL-4-(3-METHYLBENZYL)PYRIDIN-2(1H)-ONE

> <CHEMICAL_FORMULA>
C20H28N2O2

> <MOLECULAR_WEIGHT>
328.4485

> <EXACT_MASS>
328.21507815

> <IUPAC_NAME>
5-ethyl-3-[(2-methoxyethyl)(methyl)amino]-6-methyl-4-[(3-methylphenyl)methyl]-1,2-dihydropyridin-2-one

> <IUPAC_TRADITIONAL_NAME>
5-ethyl-3-[(2-methoxyethyl)(methyl)amino]-6-methyl-4-[(3-methylphenyl)methyl]-1H-pyridin-2-one

> <INCHI_IDENTIFIER>
InChI=1S/C20H28N2O2/c1-6-17-15(3)21-20(23)19(22(4)10-11-24-5)18(17)13-16-9-7-8-14(2)12-16/h7-9,12H,6,10-11,13H2,1-5H3,(H,21,23)

> <INCHI_KEY>
InChIKey=USWKTQVAABDFSY-UHFFFAOYSA-N

> <SMILES>
CCC1=C(C)NC(=O)C(N(C)CCOC)=C1CC1=CC=CC(C)=C1

> <JCHEM_ACCEPTOR_COUNT>
3

> <JCHEM_DONOR_COUNT>
1

> <JCHEM_ACIDIC_PKA>
11.82

> <JCHEM_BASIC_PKA>
4.42

> <JCHEM_PHYSIOLOGICAL_CHARGE>
0

> <ALOGPS_LOGP>
3.18

> <JCHEM_LOGP>
3.13

> <ALOGPS_LOGS>
-3.6

> <JCHEM_POLARIZABILITY>
37.88

> <JCHEM_POLAR_SURFACE_AREA>
41.57

> <JCHEM_REFRACTIVITY>
101.5

> <JCHEM_ROTATABLE_BOND_COUNT>
7

> <ALOGPS_SOLUBILITY>
8.12e-02 g/l __ 

$$$$
