HPO
  Mrv0541 02241213442D          

 12 11  0  0  0  0            999 V2000
   -2.7577   -0.1638    0.0000 C   0  0  0  0  0  0  0  0  0  0  0  0
   -2.0433    0.2487    0.0000 C   0  0  0  0  0  0  0  0  0  0  0  0
   -1.3287   -0.1638    0.0000 C   0  0  0  0  0  0  0  0  0  0  0  0
   -0.6141    0.2487    0.0000 C   0  0  0  0  0  0  0  0  0  0  0  0
    0.1004   -0.1638    0.0000 C   0  0  0  0  0  0  0  0  0  0  0  0
    0.8149    0.2487    0.0000 C   0  0  0  0  0  0  0  0  0  0  0  0
    1.5294   -0.1638    0.0000 C   0  0  0  0  0  0  0  0  0  0  0  0
    0.8149    1.0738    0.0000 O   0  0  0  0  0  0  0  0  0  0  0  0
    2.2440    0.2487    0.0000 P   0  0  0  0  0  0  0  0  0  0  0  0
    2.9584    0.6612    0.0000 O   0  0  0  0  0  0  0  0  0  0  0  0
    2.6565   -0.4658    0.0000 O   0  0  0  0  0  0  0  0  0  0  0  0
    1.8314    0.9632    0.0000 O   0  0  0  0  0  0  0  0  0  0  0  0
  1  2  1  0  0  0  0
  2  3  1  0  0  0  0
  3  4  1  0  0  0  0
  4  5  1  0  0  0  0
  5  6  1  0  0  0  0
  6  7  1  0  0  0  0
  6  8  2  0  0  0  0
  7  9  1  0  0  0  0
  9 10  2  0  0  0  0
  9 11  1  0  0  0  0
  9 12  1  0  0  0  0
M  END
> <DRUGBANK_ID>
DB07912

> <DRUG_GROUPS>
experimental

> <GENERIC_NAME>
2-OXOHEPTYLPHOSPHONIC ACID

> <CHEMICAL_FORMULA>
C7H15O4P

> <MOLECULAR_WEIGHT>
194.1654

> <EXACT_MASS>
194.07079548

> <IUPAC_NAME>
(2-oxoheptyl)phosphonic acid

> <IUPAC_TRADITIONAL_NAME>
2-oxoheptylphosphonic acid

> <INCHI_IDENTIFIER>
InChI=1S/C7H15O4P/c1-2-3-4-5-7(8)6-12(9,10)11/h2-6H2,1H3,(H2,9,10,11)

> <INCHI_KEY>
InChIKey=ACMQFLCUSWMWKH-UHFFFAOYSA-N

> <SMILES>
CCCCCC(=O)CP(O)(O)=O

> <JCHEM_ACCEPTOR_COUNT>
4

> <JCHEM_DONOR_COUNT>
2

> <JCHEM_ACIDIC_PKA>
1.68

> <JCHEM_BASIC_PKA>
-7.6

> <JCHEM_PHYSIOLOGICAL_CHARGE>
-1

> <ALOGPS_LOGP>
0.49

> <JCHEM_LOGP>
0.73

> <ALOGPS_LOGS>
-1.2

> <JCHEM_POLARIZABILITY>
18.66

> <JCHEM_POLAR_SURFACE_AREA>
74.6

> <JCHEM_REFRACTIVITY>
45.61

> <JCHEM_ROTATABLE_BOND_COUNT>
6

> <ALOGPS_SOLUBILITY>
1.16e+01 g/l __ 

$$$$
