AAF
  Mrv0541 02241213212D          

 32 34  0  0  0  0            999 V2000
   -3.0458    0.2218    0.0000 C   0  0  0  0  0  0  0  0  0  0  0  0
   -2.2253    0.3080    0.0000 C   0  0  2  0  0  0  0  0  0  0  0  0
   -1.8128    1.0225    0.0000 C   0  0  0  0  0  0  0  0  0  0  0  0
   -1.0059    0.8510    0.0000 C   0  0  0  0  0  0  0  0  0  0  0  0
   -0.9196    0.0305    0.0000 C   0  0  2  0  0  0  0  0  0  0  0  0
   -0.2052   -0.3820    0.0000 C   0  0  0  0  0  0  0  0  0  0  0  0
   -3.3814   -0.5319    0.0000 O   0  0  0  0  0  0  0  0  0  0  0  0
   -1.6733   -0.3051    0.0000 N   0  0  0  0  0  0  0  0  0  0  0  0
   -3.5307    0.8892    0.0000 N   0  0  0  0  0  0  0  0  0  0  0  0
   -4.3557    0.8892    0.0000 C   0  0  1  0  0  0  0  0  0  0  0  0
   -4.6107    1.6739    0.0000 C   0  0  0  0  0  0  0  0  0  0  0  0
   -3.9432    2.1588    0.0000 C   0  0  0  0  0  0  0  0  0  0  0  0
   -3.2758    1.6739    0.0000 C   0  0  0  0  0  0  0  0  0  0  0  0
   -4.8407    0.2218    0.0000 C   0  0  0  0  0  0  0  0  0  0  0  0
    0.5093    0.0305    0.0000 N   0  0  0  0  0  0  0  0  0  0  0  0
    1.2238   -0.3820    0.0000 C   0  0  0  0  0  0  0  0  0  0  0  0
    1.2238   -1.2070    0.0000 O   0  0  0  0  0  0  0  0  0  0  0  0
   -5.6611    0.3080    0.0000 N   0  0  0  0  0  0  0  0  0  0  0  0
    1.9383    0.0305    0.0000 N   0  0  0  0  0  0  0  0  0  0  0  0
    2.6527   -0.3820    0.0000 C   0  0  0  0  0  0  0  0  0  0  0  0
    3.3672    0.0305    0.0000 C   0  0  0  0  0  0  0  0  0  0  0  0
    4.0817   -0.3820    0.0000 C   0  0  0  0  0  0  0  0  0  0  0  0
    4.0817   -1.2070    0.0000 C   0  0  0  0  0  0  0  0  0  0  0  0
    3.3672   -1.6195    0.0000 C   0  0  0  0  0  0  0  0  0  0  0  0
    2.6527   -1.2070    0.0000 C   0  0  0  0  0  0  0  0  0  0  0  0
    4.7961   -1.6195    0.0000 C   0  0  0  0  0  0  0  0  0  0  0  0
    5.5106   -1.2070    0.0000 O   0  0  0  0  0  0  0  0  0  0  0  0
    4.7961   -2.4445    0.0000 O   0  0  0  0  0  0  0  0  0  0  0  0
    5.5106   -2.8570    0.0000 C   0  0  0  0  0  0  0  0  0  0  0  0
   -2.5434    0.7977    0.0000 H   0  0  0  0  0  0  0  0  0  0  0  0
   -0.4299    0.3485    0.0000 H   0  0  0  0  0  0  0  0  0  0  0  0
   -4.0906    0.3689    0.0000 H   0  0  0  0  0  0  0  0  0  0  0  0
  2  1  1  6  0  0  0
  1  7  2  0  0  0  0
  1  9  1  0  0  0  0
  2  3  1  0  0  0  0
  2  8  1  0  0  0  0
  2 30  1  1  0  0  0
  3  4  1  0  0  0  0
  4  5  1  0  0  0  0
  5  6  1  6  0  0  0
  5  8  1  0  0  0  0
  5 31  1  1  0  0  0
  6 15  1  0  0  0  0
  9 10  1  0  0  0  0
  9 13  1  0  0  0  0
 10 11  1  0  0  0  0
 10 14  1  6  0  0  0
 10 32  1  1  0  0  0
 11 12  1  0  0  0  0
 12 13  1  0  0  0  0
 14 18  1  0  0  0  0
 15 16  1  0  0  0  0
 16 17  2  0  0  0  0
 16 19  1  0  0  0  0
 19 20  1  0  0  0  0
 20 21  1  0  0  0  0
 20 25  2  0  0  0  0
 21 22  2  0  0  0  0
 22 23  1  0  0  0  0
 23 24  2  0  0  0  0
 23 26  1  0  0  0  0
 24 25  1  0  0  0  0
 26 27  2  0  0  0  0
 26 28  1  0  0  0  0
 28 29  1  0  0  0  0
M  END
> <DRUGBANK_ID>
DB07328

> <DRUG_GROUPS>
experimental

> <GENERIC_NAME>
METHYL 4-{[({[(2R,5S)-5-{[(2S)-2-(AMINOMETHYL)PYRROLIDIN-1-YL]CARBONYL}PYRROLIDIN-2-YL]METHYL}AMINO)CARBONYL]AMINO}BENZOATE

> <CHEMICAL_FORMULA>
C20H29N5O4

> <MOLECULAR_WEIGHT>
403.4754

> <EXACT_MASS>
403.221954441

> <IUPAC_NAME>
methyl 4-[({[(2R,5S)-5-{[(2S)-2-(aminomethyl)pyrrolidin-1-yl]carbonyl}pyrrolidin-2-yl]methyl}carbamoyl)amino]benzoate

> <IUPAC_TRADITIONAL_NAME>
methyl 4-[({[(2R,5S)-5-{[(2S)-2-(aminomethyl)pyrrolidin-1-yl]carbonyl}pyrrolidin-2-yl]methyl}carbamoyl)amino]benzoate

> <INCHI_IDENTIFIER>
InChI=1S/C20H29N5O4/c1-29-19(27)13-4-6-14(7-5-13)24-20(28)22-12-15-8-9-17(23-15)18(26)25-10-2-3-16(25)11-21/h4-7,15-17,23H,2-3,8-12,21H2,1H3,(H2,22,24,28)/t15-,16+,17+/m1/s1

> <INCHI_KEY>
InChIKey=USDCNOQKDUFKRD-IKGGRYGDSA-N

> <SMILES>
[H][C@]1(CNC(=O)NC2=CC=C(C=C2)C(=O)OC)CC[C@]([H])(N1)C(=O)N1CCC[C@@]1([H])CN

> <JCHEM_ACCEPTOR_COUNT>
5

> <JCHEM_DONOR_COUNT>
4

> <JCHEM_ACIDIC_PKA>
12.79

> <JCHEM_BASIC_PKA>
9.45

> <JCHEM_PHYSIOLOGICAL_CHARGE>
2

> <ALOGPS_LOGP>
0.24

> <JCHEM_LOGP>
0.2

> <ALOGPS_LOGS>
-3.1

> <JCHEM_POLARIZABILITY>
43.47

> <JCHEM_POLAR_SURFACE_AREA>
125.79

> <JCHEM_REFRACTIVITY>
109.06

> <JCHEM_ROTATABLE_BOND_COUNT>
7

> <ALOGPS_SOLUBILITY>
3.17e-01 g/l __ 

$$$$
