AVE
  Mrv0541 02241213242D          

 29 30  0  0  0  0            999 V2000
   -3.9145    1.0795    0.0000 C    0  0  0  0  0  0  0  0  0  0  0  0
   -3.2000    1.4920    0.0000 C    0  0  0  0  0  0  0  0  0  0  0  0
   -2.4855    1.0795    0.0000 C    0  0  0  0  0  0  0  0  0  0  0  0
   -1.7711   -0.1580    0.0000 C    0  0  0  0  0  0  0  0  0  0  0  0
   -0.3421   -0.1580    0.0000 C    0  0  0  0  0  0  0  0  0  0  0  0
    1.0868   -0.1580    0.0000 C    0  0  0  0  0  0  0  0  0  0  0  0
    1.0868   -0.9830    0.0000 C    0  0  0  0  0  0  0  0  0  0  0  0
    2.5158   -0.1580    0.0000 C    0  0  0  0  0  0  0  0  0  0  0  0
    1.8013    0.2545    0.0000 C    0  0  0  0  0  0  0  0  0  0  0  0
    3.2302   -1.3955    0.0000 C    0  0  0  0  0  0  0  0  0  0  0  0
   -1.7711   -0.9830    0.0000 O    0  0  0  0  0  0  0  0  0  0  0  0
    1.0868    1.4920    0.0000 C    0  0  0  0  0  0  0  0  0  0  0  0
   -3.2000   -0.9830    0.0000 Cl   0  0  0  0  0  0  0  0  0  0  0  0
   -3.2000   -0.1580    0.0000 C    0  0  0  0  0  0  0  0  0  0  0  0
   -3.9145    0.2545    0.0000 C    0  0  0  0  0  0  0  0  0  0  0  0
   -4.6289    1.4920    0.0000 F    0  0  0  0  0  0  0  0  0  0  0  0
   -3.2000    2.3170    0.0000 F    0  0  0  0  0  0  0  0  0  0  0  0
   -2.4855    0.2545    0.0000 C    0  0  0  0  0  0  0  0  0  0  0  0
   -1.0566    0.2545    0.0000 N    0  0  0  0  0  0  0  0  0  0  0  0
   -0.3421   -0.9830    0.0000 O    0  0  0  0  0  0  0  0  0  0  0  0
    0.3724    0.2545    0.0000 N    0  0  0  0  0  0  0  0  0  0  0  0
    1.8013   -1.3955    0.0000 C    0  0  0  0  0  0  0  0  0  0  0  0
    2.5158   -0.9830    0.0000 C    0  0  0  0  0  0  0  0  0  0  0  0
    3.9447   -0.9830    0.0000 O    0  0  0  0  0  0  0  0  0  0  0  0
    3.2302   -2.2205    0.0000 O    0  0  0  0  0  0  0  0  0  0  0  0
    1.8013    1.0795    0.0000 O    0  0  0  0  0  0  0  0  0  0  0  0
    1.4993    2.2064    0.0000 F    0  0  0  0  0  0  0  0  0  0  0  0
    0.6743    0.7775    0.0000 F    0  0  0  0  0  0  0  0  0  0  0  0
    0.3724    1.9045    0.0000 F    0  0  0  0  0  0  0  0  0  0  0  0
  1  2  2  0  0  0  0
  1 15  1  0  0  0  0
  2  3  1  0  0  0  0
  3 18  2  0  0  0  0
  4 11  2  0  0  0  0
  5 21  1  0  0  0  0
  6  9  1  0  0  0  0
  7  6  2  0  0  0  0
  7 22  1  0  0  0  0
  9  8  2  0  0  0  0
  9 26  1  0  0  0  0
 10 24  1  0  0  0  0
 12 29  1  0  0  0  0
 12 27  1  0  0  0  0
 14 13  1  0  0  0  0
 14 15  2  0  0  0  0
 14 18  1  0  0  0  0
 16  1  1  0  0  0  0
 17  2  1  0  0  0  0
 18  4  1  0  0  0  0
 19  4  1  0  0  0  0
 19  5  1  0  0  0  0
 20  5  2  0  0  0  0
 21  6  1  0  0  0  0
 22 23  2  0  0  0  0
 23  8  1  0  0  0  0
 23 10  1  0  0  0  0
 25 10  2  0  0  0  0
 26 12  1  0  0  0  0
 28 12  1  0  0  0  0
M  END
> <DRUGBANK_ID>
DB07395

> <DRUG_GROUPS>
experimental

> <GENERIC_NAME>
4-[3-(2-Chloro-4,5-difluoro-benzoyl)ureido]-3-trifluoromethoxybenzoic acid

> <CHEMICAL_FORMULA>
C16H8ClF5N2O5

> <MOLECULAR_WEIGHT>
438.69

> <EXACT_MASS>
438.004190108

> <IUPAC_NAME>
4-({[(2-chloro-4,5-difluorophenyl)carbonyl]carbamoyl}amino)-3-(trifluoromethoxy)benzoic acid

> <IUPAC_TRADITIONAL_NAME>
4-({[(2-chloro-4,5-difluorophenyl)carbonyl]carbamoyl}amino)-3-(trifluoromethoxy)benzoic acid

> <INCHI_IDENTIFIER>
InChI=1S/C16H8ClF5N2O5/c17-8-5-10(19)9(18)4-7(8)13(25)24-15(28)23-11-2-1-6(14(26)27)3-12(11)29-16(20,21)22/h1-5H,(H,26,27)(H2,23,24,25,28)

> <INCHI_KEY>
InChIKey=NWQGDIBCFLDHDO-UHFFFAOYSA-N

> <SMILES>
OC(=O)C1=CC=C(NC(=O)NC(=O)C2=CC(F)=C(F)C=C2Cl)C(OC(F)(F)F)=C1

> <JCHEM_ACCEPTOR_COUNT>
5

> <JCHEM_DONOR_COUNT>
3

> <JCHEM_ACIDIC_PKA>
3.9

> <JCHEM_BASIC_PKA>
-5.3

> <JCHEM_PHYSIOLOGICAL_CHARGE>
-1

> <ALOGPS_LOGP>
3.83

> <JCHEM_LOGP>
4.7

> <ALOGPS_LOGS>
-5.6

> <JCHEM_POLARIZABILITY>
34.22

> <JCHEM_POLAR_SURFACE_AREA>
104.73

> <JCHEM_REFRACTIVITY>
85.4

> <JCHEM_ROTATABLE_BOND_COUNT>
5

> <ALOGPS_SOLUBILITY>
1.18e-03 g/l __ 

$$$$
