F1J
  Mrv0541 02241213372D          

 21 22  0  0  0  0            999 V2000
    1.4462    0.6337    0.0000 C   0  0  0  0  0  0  0  0  0  0  0  0
   -3.5551    0.2212    0.0000 C   0  0  0  0  0  0  0  0  0  0  0  0
   -2.8406    0.6337    0.0000 C   0  0  0  0  0  0  0  0  0  0  0  0
   -3.5551   -0.6038    0.0000 C   0  0  0  0  0  0  0  0  0  0  0  0
   -2.8406   -1.0163    0.0000 C   0  0  0  0  0  0  0  0  0  0  0  0
   -2.1261   -0.6038    0.0000 C   0  0  0  0  0  0  0  0  0  0  0  0
   -2.1261    0.2212    0.0000 C   0  0  0  0  0  0  0  0  0  0  0  0
   -1.4117    0.6337    0.0000 C   0  0  0  0  0  0  0  0  0  0  0  0
    0.0173    0.6337    0.0000 C   0  0  0  0  0  0  0  0  0  0  0  0
    0.7317    0.2212    0.0000 C   0  0  2  0  0  0  0  0  0  0  0  0
   -0.6972   -0.6038    0.0000 C   0  0  0  0  0  0  0  0  0  0  0  0
    0.0173   -1.0163    0.0000 C   0  0  0  0  0  0  0  0  0  0  0  0
    1.4462    1.4587    0.0000 O   0  0  0  0  0  0  0  0  0  0  0  0
    2.1607    0.2212    0.0000 N   0  0  0  0  0  0  0  0  0  0  0  0
    2.8752    0.6337    0.0000 C   0  0  0  0  0  0  0  0  0  0  0  0
    3.5896    0.2212    0.0000 C   0  0  0  0  0  0  0  0  0  0  0  0
    4.3041    0.6337    0.0000 S   0  0  0  0  0  0  0  0  0  0  0  0
    0.7317   -0.6038    0.0000 N   0  0  0  0  0  0  0  0  0  0  0  0
   -0.6972    0.2212    0.0000 N   0  0  0  0  0  0  0  0  0  0  0  0
   -4.2695   -1.0163    0.0000 F   0  0  0  0  0  0  0  0  0  0  0  0
    0.7317    0.8051    0.0000 H   0  0  0  0  0  0  0  0  0  0  0  0
 10  1  1  1  0  0  0
  1 13  2  0  0  0  0
  1 14  1  0  0  0  0
  2  3  2  0  0  0  0
  2  4  1  0  0  0  0
  3  7  1  0  0  0  0
  4  5  2  0  0  0  0
  4 20  1  0  0  0  0
  5  6  1  0  0  0  0
  6  7  2  0  0  0  0
  7  8  1  0  0  0  0
  8 19  1  0  0  0  0
  9 10  1  0  0  0  0
  9 19  1  0  0  0  0
 10 18  1  0  0  0  0
 10 21  1  6  0  0  0
 11 12  1  0  0  0  0
 11 19  1  0  0  0  0
 12 18  1  0  0  0  0
 14 15  1  0  0  0  0
 15 16  1  0  0  0  0
 16 17  1  0  0  0  0
M  END
> <DRUGBANK_ID>
DB07736

> <DRUG_GROUPS>
experimental

> <GENERIC_NAME>
(2S)-4-(4-fluorobenzyl)-N-(2-sulfanylethyl)piperazine-2-carboxamide

> <CHEMICAL_FORMULA>
C14H20FN3OS

> <MOLECULAR_WEIGHT>
297.392

> <EXACT_MASS>
297.131111172

> <IUPAC_NAME>
(2S)-4-[(4-fluorophenyl)methyl]-N-(2-sulfanylethyl)piperazine-2-carboxamide

> <IUPAC_TRADITIONAL_NAME>
(2S)-4-[(4-fluorophenyl)methyl]-N-(2-sulfanylethyl)piperazine-2-carboxamide

> <INCHI_IDENTIFIER>
InChI=1S/C14H20FN3OS/c15-12-3-1-11(2-4-12)9-18-7-5-16-13(10-18)14(19)17-6-8-20/h1-4,13,16,20H,5-10H2,(H,17,19)/t13-/m0/s1

> <INCHI_KEY>
InChIKey=CEXXKSSFAKABEN-ZDUSSCGKSA-N

> <SMILES>
[H][C@]1(CN(CC2=CC=C(F)C=C2)CCN1)C(=O)NCCS

> <JCHEM_ACCEPTOR_COUNT>
3

> <JCHEM_DONOR_COUNT>
3

> <JCHEM_ACIDIC_PKA>
10.08

> <JCHEM_BASIC_PKA>
8.06

> <JCHEM_PHYSIOLOGICAL_CHARGE>
1

> <ALOGPS_LOGP>
1.17

> <JCHEM_LOGP>
1.03

> <ALOGPS_LOGS>
-3.6

> <JCHEM_POLARIZABILITY>
31.29

> <JCHEM_POLAR_SURFACE_AREA>
44.37

> <JCHEM_REFRACTIVITY>
80.6

> <JCHEM_ROTATABLE_BOND_COUNT>
5

> <ALOGPS_SOLUBILITY>
7.12e-02 g/l __ 

$$$$
