47D
  Mrv0541 02241213112D          

 23 25  0  0  0  0            999 V2000
    2.9420    2.6754    0.0000 C    0  0  0  0  0  0  0  0  0  0  0  0
    2.1573    2.9303    0.0000 N    0  0  0  0  0  0  0  0  0  0  0  0
    1.6724    2.2629    0.0000 C    0  0  0  0  0  0  0  0  0  0  0  0
    0.8474    2.2629    0.0000 C    0  0  0  0  0  0  0  0  0  0  0  0
    0.4349    1.5484    0.0000 N    0  0  0  0  0  0  0  0  0  0  0  0
   -0.3901    1.5484    0.0000 C    0  0  0  0  0  0  0  0  0  0  0  0
   -0.8026    2.2629    0.0000 O    0  0  0  0  0  0  0  0  0  0  0  0
   -0.8026    0.8340    0.0000 N    0  0  0  0  0  0  0  0  0  0  0  0
   -1.6276    0.8340    0.0000 C    0  0  0  0  0  0  0  0  0  0  0  0
   -2.0401    0.1195    0.0000 C    0  0  0  0  0  0  0  0  0  0  0  0
   -2.8651    0.1195    0.0000 O    0  0  0  0  0  0  0  0  0  0  0  0
   -1.6276   -0.5950    0.0000 O    0  0  0  0  0  0  0  0  0  0  0  0
   -0.3901    0.1195    0.0000 C    0  0  0  0  0  0  0  0  0  0  0  0
    0.4349    0.1195    0.0000 C    0  0  0  0  0  0  0  0  0  0  0  0
    0.8474    0.8340    0.0000 C    0  0  0  0  0  0  0  0  0  0  0  0
    1.6724    0.8340    0.0000 O    0  0  0  0  0  0  0  0  0  0  0  0
    2.1573    1.5955    0.0000 S    0  0  0  0  0  0  0  0  0  0  0  0
    2.9420    1.8504    0.0000 C    0  0  0  0  0  0  0  0  0  0  0  0
    3.6564    1.4379    0.0000 C    0  0  0  0  0  0  0  0  0  0  0  0
    4.3709    1.8504    0.0000 C    0  0  0  0  0  0  0  0  0  0  0  0
    4.3709    2.6754    0.0000 C    0  0  0  0  0  0  0  0  0  0  0  0
    5.0854    3.0879    0.0000 Cl   0  0  0  0  0  0  0  0  0  0  0  0
    3.6564    3.0879    0.0000 C    0  0  0  0  0  0  0  0  0  0  0  0
  1 23  2  0  0  0  0
  1 18  1  0  0  0  0
  1  2  1  0  0  0  0
  2  3  2  0  0  0  0
  3 17  1  0  0  0  0
  3  4  1  0  0  0  0
  4  5  1  0  0  0  0
  5 15  1  0  0  0  0
  5  6  1  0  0  0  0
  6  7  2  0  0  0  0
  6  8  1  0  0  0  0
  8 13  1  0  0  0  0
  8  9  1  0  0  0  0
  9 10  1  0  0  0  0
 10 12  2  0  0  0  0
 10 11  1  0  0  0  0
 13 14  2  0  0  0  0
 14 15  1  0  0  0  0
 15 16  2  0  0  0  0
 17 18  1  0  0  0  0
 18 19  2  0  0  0  0
 19 20  1  0  0  0  0
 20 21  2  0  0  0  0
 21 22  1  0  0  0  0
 21 23  1  0  0  0  0
M  END
> <DRUGBANK_ID>
DB07093

> <DRUG_GROUPS>
experimental

> <GENERIC_NAME>
{3-[(5-CHLORO-1,3-BENZOTHIAZOL-2-YL)METHYL]-2,4-DIOXO-3,4-DIHYDROPYRIMIDIN-1(2H)-YL}ACETIC ACID

> <CHEMICAL_FORMULA>
C14H10ClN3O4S

> <MOLECULAR_WEIGHT>
351.765

> <EXACT_MASS>
351.00805422

> <IUPAC_NAME>
2-{3-[(5-chloro-1,3-benzothiazol-2-yl)methyl]-2,4-dioxo-1,2,3,4-tetrahydropyrimidin-1-yl}acetic acid

> <IUPAC_TRADITIONAL_NAME>
{3-[(5-chloro-1,3-benzothiazol-2-yl)methyl]-2,4-dioxopyrimidin-1-yl}acetic acid

> <INCHI_IDENTIFIER>
InChI=1S/C14H10ClN3O4S/c15-8-1-2-10-9(5-8)16-11(23-10)6-18-12(19)3-4-17(14(18)22)7-13(20)21/h1-5H,6-7H2,(H,20,21)

> <INCHI_KEY>
InChIKey=RQWICELTTDJODO-UHFFFAOYSA-N

> <SMILES>
OC(=O)CN1C=CC(=O)N(CC2=NC3=CC(Cl)=CC=C3S2)C1=O

> <JCHEM_ACCEPTOR_COUNT>
5

> <JCHEM_DONOR_COUNT>
1

> <JCHEM_ACIDIC_PKA>
3.74

> <JCHEM_BASIC_PKA>
2.3

> <JCHEM_PHYSIOLOGICAL_CHARGE>
-1

> <ALOGPS_LOGP>
1.98

> <JCHEM_LOGP>
1.43

> <ALOGPS_LOGS>
-4.5

> <JCHEM_POLARIZABILITY>
32.58

> <JCHEM_POLAR_SURFACE_AREA>
90.81

> <JCHEM_REFRACTIVITY>
81.66

> <JCHEM_ROTATABLE_BOND_COUNT>
4

> <ALOGPS_SOLUBILITY>
1.18e-02 g/l __ 

$$$$
