DMC
  Mrv0541 02241213342D          

 18 18  0  0  0  0            999 V2000
    2.6147    2.8666    0.0000 O   0  0  0  0  0  0  0  0  0  0  0  0
    2.6147    2.0416    0.0000 C   0  0  0  0  0  0  0  0  0  0  0  0
    1.9002    1.6291    0.0000 C   0  0  0  0  0  0  0  0  0  0  0  0
    1.9002    0.8041    0.0000 C   0  0  0  0  0  0  0  0  0  0  0  0
    1.1858    2.0416    0.0000 C   0  0  0  0  0  0  0  0  0  0  0  0
    1.1858    0.3916    0.0000 C   0  0  0  0  0  0  0  0  0  0  0  0
    1.1858   -0.4334    0.0000 C   0  0  0  0  0  0  0  0  0  0  0  0
    0.4713   -0.8459    0.0000 C   0  0  0  0  0  0  0  0  0  0  0  0
   -0.2432   -0.4334    0.0000 C   0  0  0  0  0  0  0  0  0  0  0  0
   -0.2432    0.3916    0.0000 C   0  0  0  0  0  0  0  0  0  0  0  0
    0.4713    0.8041    0.0000 C   0  0  0  0  0  0  0  0  0  0  0  0
    1.9002   -0.8459    0.0000 O   0  0  0  0  0  0  0  0  0  0  0  0
   -0.9576   -0.8459    0.0000 N   0  0  0  0  0  0  0  0  0  0  0  0
   -1.6721   -0.4334    0.0000 C   0  0  0  0  0  0  0  0  0  0  0  0
   -0.9576   -1.6709    0.0000 C   0  0  0  0  0  0  0  0  0  0  0  0
   -2.3866   -0.8459    0.0000 C   0  0  0  0  0  0  0  0  0  0  0  0
   -1.6721   -2.0834    0.0000 C   0  0  0  0  0  0  0  0  0  0  0  0
    3.3292    1.6291    0.0000 O   0  0  0  0  0  0  0  0  0  0  0  0
  1  2  2  0  0  0  0
  2  3  1  0  0  0  0
  2 18  1  0  0  0  0
  3  4  2  0  0  0  0
  3  5  1  0  0  0  0
  4  6  1  0  0  0  0
  6  7  2  0  0  0  0
  6 11  1  0  0  0  0
  7  8  1  0  0  0  0
  7 12  1  0  0  0  0
  8  9  2  0  0  0  0
  9 10  1  0  0  0  0
  9 13  1  0  0  0  0
 10 11  2  0  0  0  0
 13 14  1  0  0  0  0
 13 15  1  0  0  0  0
 14 16  1  0  0  0  0
 15 17  1  0  0  0  0
M  END
> <DRUGBANK_ID>
DB07668

> <DRUG_GROUPS>
experimental

> <GENERIC_NAME>
3-(4-DIETHYLAMINO-2-HYDROXY-PHENYL)-2-METHYL-PROPIONIC ACID

> <CHEMICAL_FORMULA>
C14H19NO3

> <MOLECULAR_WEIGHT>
249.3056

> <EXACT_MASS>
249.136493479

> <IUPAC_NAME>
(2E)-3-[4-(diethylamino)-2-hydroxyphenyl]-2-methylprop-2-enoic acid

> <IUPAC_TRADITIONAL_NAME>
(2E)-3-[4-(diethylamino)-2-hydroxyphenyl]-2-methylprop-2-enoic acid

> <INCHI_IDENTIFIER>
InChI=1S/C14H19NO3/c1-4-15(5-2)12-7-6-11(13(16)9-12)8-10(3)14(17)18/h6-9,16H,4-5H2,1-3H3,(H,17,18)/b10-8+

> <INCHI_KEY>
InChIKey=JAEWDFYDSACHDN-CSKARUKUSA-N

> <SMILES>
CCN(CC)C1=CC(O)=C(\C=C(/C)C(O)=O)C=C1

> <JCHEM_ACCEPTOR_COUNT>
4

> <JCHEM_DONOR_COUNT>
2

> <JCHEM_ACIDIC_PKA>
3.82

> <JCHEM_BASIC_PKA>
4.85

> <JCHEM_PHYSIOLOGICAL_CHARGE>
-1

> <ALOGPS_LOGP>
2.79

> <JCHEM_LOGP>
2.01

> <ALOGPS_LOGS>
-2.5

> <JCHEM_POLARIZABILITY>
27.91

> <JCHEM_POLAR_SURFACE_AREA>
60.77

> <JCHEM_REFRACTIVITY>
73.32

> <JCHEM_ROTATABLE_BOND_COUNT>
5

> <ALOGPS_SOLUBILITY>
7.52e-01 g/l __ 

$$$$
