GK3
  Mrv0541 02241213402D          

 30 33  0  0  0  0            999 V2000
    5.1601    1.6069    0.0000 N   0  0  0  0  0  0  0  0  0  0  0  0
    4.4457    2.0194    0.0000 C   0  0  0  0  0  0  0  0  0  0  0  0
    3.7312    2.4319    0.0000 C   0  0  0  0  0  0  0  0  0  0  0  0
    3.7312    3.2569    0.0000 C   0  0  0  0  0  0  0  0  0  0  0  0
    3.0167    3.6694    0.0000 C   0  0  0  0  0  0  0  0  0  0  0  0
    2.3023    3.2569    0.0000 C   0  0  0  0  0  0  0  0  0  0  0  0
    3.0167    2.0194    0.0000 C   0  0  0  0  0  0  0  0  0  0  0  0
    2.3023    2.4319    0.0000 C   0  0  0  0  0  0  0  0  0  0  0  0
    1.5878    2.0194    0.0000 N   0  0  0  0  0  0  0  0  0  0  0  0
    1.5878    1.1944    0.0000 C   0  0  0  0  0  0  0  0  0  0  0  0
    2.3023    0.7819    0.0000 O   0  0  0  0  0  0  0  0  0  0  0  0
    0.8733    0.7819    0.0000 C   0  0  0  0  0  0  0  0  0  0  0  0
    0.1588    1.1944    0.0000 C   0  0  0  0  0  0  0  0  0  0  0  0
    0.8733   -0.0431    0.0000 C   0  0  0  0  0  0  0  0  0  0  0  0
    0.1588   -0.4556    0.0000 C   0  0  0  0  0  0  0  0  0  0  0  0
   -0.5556   -0.0431    0.0000 C   0  0  0  0  0  0  0  0  0  0  0  0
   -0.5556    0.7819    0.0000 C   0  0  0  0  0  0  0  0  0  0  0  0
   -1.2701   -0.4556    0.0000 C   0  0  0  0  0  0  0  0  0  0  0  0
   -1.2701   -1.2806    0.0000 C   0  0  0  0  0  0  0  0  0  0  0  0
   -1.9846   -1.6931    0.0000 C   0  0  0  0  0  0  0  0  0  0  0  0
   -1.9846   -2.5181    0.0000 C   0  0  0  0  0  0  0  0  0  0  0  0
   -1.3171   -3.0030    0.0000 O   0  0  0  0  0  0  0  0  0  0  0  0
   -1.5721   -3.7876    0.0000 C   0  0  0  0  0  0  0  0  0  0  0  0
   -1.0871   -4.4551    0.0000 C   0  0  0  0  0  0  0  0  0  0  0  0
   -2.3971   -3.7876    0.0000 N   0  0  0  0  0  0  0  0  0  0  0  0
   -2.6520   -3.0030    0.0000 N   0  0  0  0  0  0  0  0  0  0  0  0
   -2.6990   -1.2806    0.0000 C   0  0  0  0  0  0  0  0  0  0  0  0
   -2.6990   -0.4556    0.0000 C   0  0  0  0  0  0  0  0  0  0  0  0
   -1.9846   -0.0431    0.0000 C   0  0  0  0  0  0  0  0  0  0  0  0
   -1.9846    0.7819    0.0000 C   0  0  0  0  0  0  0  0  0  0  0  0
  1  2  3  0  0  0  0
  2  3  1  0  0  0  0
  3  7  1  0  0  0  0
  4  3  2  0  0  0  0
  4  5  1  0  0  0  0
  5  6  2  0  0  0  0
  6  8  1  0  0  0  0
  7  8  2  0  0  0  0
  8  9  1  0  0  0  0
  9 10  1  0  0  0  0
 10 11  2  0  0  0  0
 10 12  1  0  0  0  0
 12 14  1  0  0  0  0
 13 12  2  0  0  0  0
 13 17  1  0  0  0  0
 14 15  2  0  0  0  0
 16 18  1  0  0  0  0
 16 15  1  0  0  0  0
 17 16  2  0  0  0  0
 18 19  2  0  0  0  0
 19 20  1  0  0  0  0
 20 21  1  0  0  0  0
 21 22  1  0  0  0  0
 21 26  2  0  0  0  0
 22 23  1  0  0  0  0
 23 24  1  0  0  0  0
 23 25  2  0  0  0  0
 26 25  1  0  0  0  0
 27 20  2  0  0  0  0
 28 27  1  0  0  0  0
 29 28  2  0  0  0  0
 29 18  1  0  0  0  0
 30 29  1  0  0  0  0
M  END
> <DRUGBANK_ID>
DB07833

> <DRUG_GROUPS>
experimental

> <GENERIC_NAME>
N-(3-cyanophenyl)-2'-methyl-5'-(5-methyl-1,3,4-oxadiazol-2-yl)-4-biphenylcarboxamide

> <CHEMICAL_FORMULA>
C24H18N4O2

> <MOLECULAR_WEIGHT>
394.4253

> <EXACT_MASS>
394.14297584

> <IUPAC_NAME>
N-(3-cyanophenyl)-4-[2-methyl-5-(5-methyl-1,3,4-oxadiazol-2-yl)phenyl]benzamide

> <IUPAC_TRADITIONAL_NAME>
N-(3-cyanophenyl)-4-[2-methyl-5-(5-methyl-1,3,4-oxadiazol-2-yl)phenyl]benzamide

> <INCHI_IDENTIFIER>
InChI=1S/C24H18N4O2/c1-15-6-7-20(24-28-27-16(2)30-24)13-22(15)18-8-10-19(11-9-18)23(29)26-21-5-3-4-17(12-21)14-25/h3-13H,1-2H3,(H,26,29)

> <INCHI_KEY>
InChIKey=PMMLSQFPBFKLHH-UHFFFAOYSA-N

> <SMILES>
CC1=NN=C(O1)C1=CC=C(C)C(=C1)C1=CC=C(C=C1)C(=O)NC1=CC(=CC=C1)C#N

> <JCHEM_ACCEPTOR_COUNT>
4

> <JCHEM_DONOR_COUNT>
1

> <JCHEM_ACIDIC_PKA>
11.04

> <JCHEM_BASIC_PKA>
-0.89

> <JCHEM_PHYSIOLOGICAL_CHARGE>
0

> <ALOGPS_LOGP>
4.18

> <JCHEM_LOGP>
4.21

> <ALOGPS_LOGS>
-3.9

> <JCHEM_POLARIZABILITY>
42.51

> <JCHEM_POLAR_SURFACE_AREA>
91.81

> <JCHEM_REFRACTIVITY>
127.96

> <JCHEM_ROTATABLE_BOND_COUNT>
4

> <ALOGPS_SOLUBILITY>
5.51e-02 g/l __ 

$$$$
