5Z5
  Mrv0541 02241213152D          

 23 25  0  0  0  0            999 V2000
   -2.5807    1.9659    0.0000 C    0  0  0  0  0  0  0  0  0  0  0  0
   -2.0286    1.3528    0.0000 N    0  0  0  0  0  0  0  0  0  0  0  0
   -1.2217    1.5243    0.0000 C    0  0  0  0  0  0  0  0  0  0  0  0
   -0.9667    2.3089    0.0000 O    0  0  0  0  0  0  0  0  0  0  0  0
   -0.6696    0.9112    0.0000 C    0  0  0  0  0  0  0  0  0  0  0  0
    0.1508    0.9975    0.0000 C    0  0  0  0  0  0  0  0  0  0  0  0
    0.5633    1.7119    0.0000 C    0  0  0  0  0  0  0  0  0  0  0  0
   -0.8412    0.1043    0.0000 C    0  0  0  0  0  0  0  0  0  0  0  0
   -1.5948   -0.2313    0.0000 C    0  0  0  0  0  0  0  0  0  0  0  0
   -0.1267   -0.3082    0.0000 N    0  0  0  0  0  0  0  0  0  0  0  0
    0.4864    0.2438    0.0000 C    0  0  0  0  0  0  0  0  0  0  0  0
    1.2934    0.0723    0.0000 C    0  0  0  0  0  0  0  0  0  0  0  0
    1.5483   -0.7124    0.0000 C    0  0  0  0  0  0  0  0  0  0  0  0
    2.3329   -0.9673    0.0000 C    0  0  0  0  0  0  0  0  0  0  0  0
    3.0474   -0.5548    0.0000 C    0  0  0  0  0  0  0  0  0  0  0  0
    3.7619   -0.9673    0.0000 C    0  0  0  0  0  0  0  0  0  0  0  0
    4.4763   -0.5548    0.0000 Cl   0  0  0  0  0  0  0  0  0  0  0  0
    3.7619   -1.7923    0.0000 C    0  0  0  0  0  0  0  0  0  0  0  0
    3.0474   -2.2048    0.0000 C    0  0  0  0  0  0  0  0  0  0  0  0
    2.3329   -1.7923    0.0000 C    0  0  0  0  0  0  0  0  0  0  0  0
    1.5483   -2.0472    0.0000 N    0  0  0  0  0  0  0  0  0  0  0  0
    1.0634   -1.3798    0.0000 C    0  0  0  0  0  0  0  0  0  0  0  0
    0.2384   -1.3798    0.0000 O    0  0  0  0  0  0  0  0  0  0  0  0
  1  2  1  0  0  0  0
  2  3  1  0  0  0  0
  3  4  2  0  0  0  0
  3  5  1  0  0  0  0
  5  6  1  0  0  0  0
  5  8  2  0  0  0  0
  6  7  1  0  0  0  0
  6 11  2  0  0  0  0
  8  9  1  0  0  0  0
  8 10  1  0  0  0  0
 10 11  1  0  0  0  0
 11 12  1  0  0  0  0
 12 13  2  0  0  0  0
 13 14  1  0  0  0  0
 13 22  1  0  0  0  0
 14 15  2  0  0  0  0
 14 20  1  0  0  0  0
 15 16  1  0  0  0  0
 16 17  1  0  0  0  0
 16 18  2  0  0  0  0
 18 19  1  0  0  0  0
 19 20  2  0  0  0  0
 20 21  1  0  0  0  0
 21 22  1  0  0  0  0
 22 23  2  0  0  0  0
M  END
> <DRUGBANK_ID>
DB07180

> <DRUG_GROUPS>
experimental

> <GENERIC_NAME>
5-[(Z)-(5-CHLORO-2-OXO-1,2-DIHYDRO-3H-INDOL-3-YLIDENE)METHYL]-N-(DIETHYLAMINO)ETHYL]-2,4-DIMETHYL-1H-PYRROLE-3-CARBOXAMIDE

> <CHEMICAL_FORMULA>
C17H16ClN3O2

> <MOLECULAR_WEIGHT>
329.781

> <EXACT_MASS>
329.093104478

> <IUPAC_NAME>
5-{[(3Z)-5-chloro-2-oxo-2,3-dihydro-1H-indol-3-ylidene]methyl}-N,2,4-trimethyl-1H-pyrrole-3-carboxamide

> <IUPAC_TRADITIONAL_NAME>
5-{[(3Z)-5-chloro-2-oxo-1H-indol-3-ylidene]methyl}-N,2,4-trimethyl-1H-pyrrole-3-carboxamide

> <INCHI_IDENTIFIER>
InChI=1S/C17H16ClN3O2/c1-8-14(20-9(2)15(8)17(23)19-3)7-12-11-6-10(18)4-5-13(11)21-16(12)22/h4-7,20H,1-3H3,(H,19,23)(H,21,22)/b12-7-

> <INCHI_KEY>
InChIKey=FIRPCWHHIWFKCD-GHXNOFRVSA-N

> <SMILES>
CNC(=O)C1=C(C)NC(\C=C2/C(=O)NC3=CC=C(Cl)C=C23)=C1C

> <JCHEM_ACCEPTOR_COUNT>
2

> <JCHEM_DONOR_COUNT>
3

> <JCHEM_ACIDIC_PKA>
11.26

> <JCHEM_BASIC_PKA>
-0.6

> <JCHEM_PHYSIOLOGICAL_CHARGE>
0

> <ALOGPS_LOGP>
2.67

> <JCHEM_LOGP>
2.66

> <ALOGPS_LOGS>
-4.2

> <JCHEM_POLARIZABILITY>
34.96

> <JCHEM_POLAR_SURFACE_AREA>
73.99

> <JCHEM_REFRACTIVITY>
93.34

> <JCHEM_ROTATABLE_BOND_COUNT>
2

> <ALOGPS_SOLUBILITY>
2.20e-02 g/l __ 

$$$$
