AHT
  Mrv0541 02241213222D          

 17 17  0  0  0  0            999 V2000
   -0.4334   -0.7384    0.0000 N   0  0  0  0  0  0  0  0  0  0  0  0
   -0.4334    0.0866    0.0000 C   0  0  2  0  0  0  0  0  0  0  0  0
   -1.1479    0.4991    0.0000 C   0  0  0  0  0  0  0  0  0  0  0  0
    0.2810    0.4991    0.0000 C   0  0  0  0  0  0  0  0  0  0  0  0
    0.9955    0.0866    0.0000 C   0  0  0  0  0  0  0  0  0  0  0  0
    1.7100    0.4991    0.0000 C   0  0  0  0  0  0  0  0  0  0  0  0
    0.9955   -0.7384    0.0000 C   0  0  0  0  0  0  0  0  0  0  0  0
    2.4245    0.0866    0.0000 C   0  0  0  0  0  0  0  0  0  0  0  0
    1.7100   -1.1509    0.0000 C   0  0  0  0  0  0  0  0  0  0  0  0
    2.4245   -0.7384    0.0000 C   0  0  0  0  0  0  0  0  0  0  0  0
    3.1389   -1.1509    0.0000 O   0  0  0  0  0  0  0  0  0  0  0  0
   -1.8624    0.0866    0.0000 C   0  0  0  0  0  0  0  0  0  0  0  0
   -2.5768    0.4991    0.0000 C   0  0  2  0  0  0  0  0  0  0  0  0
   -3.2913    0.0866    0.0000 O   0  0  0  0  0  0  0  0  0  0  0  0
   -2.5768    1.3241    0.0000 N   0  0  0  0  0  0  0  0  0  0  0  0
   -0.9391   -0.2054    0.0000 H   0  0  0  0  0  0  0  0  0  0  0  0
   -2.5768   -0.0849    0.0000 H   0  0  0  0  0  0  0  0  0  0  0  0
  2  1  1  6  0  0  0
  2  3  1  0  0  0  0
  2  4  1  0  0  0  0
  2 16  1  1  0  0  0
  3 12  1  0  0  0  0
  4  5  1  0  0  0  0
  5  6  2  0  0  0  0
  5  7  1  0  0  0  0
  6  8  1  0  0  0  0
  7  9  2  0  0  0  0
  8 10  2  0  0  0  0
  9 10  1  0  0  0  0
 10 11  1  0  0  0  0
 12 13  1  0  0  0  0
 13 14  1  0  0  0  0
 13 15  1  1  0  0  0
 13 17  1  1  0  0  0
M  END
> <DRUGBANK_ID>
DB07353

> <DRUG_GROUPS>
experimental

> <GENERIC_NAME>
4-(2,5-DIAMINO-5-HYDROXY-PENTYL)-PHENOL

> <CHEMICAL_FORMULA>
C11H18N2O2

> <MOLECULAR_WEIGHT>
210.2728

> <EXACT_MASS>
210.13682783

> <IUPAC_NAME>
4-[(2R,5S)-2,5-diamino-5-hydroxypentyl]phenol

> <IUPAC_TRADITIONAL_NAME>
4-[(2R,5S)-2,5-diamino-5-hydroxypentyl]phenol

> <INCHI_IDENTIFIER>
InChI=1S/C11H18N2O2/c12-9(3-6-11(13)15)7-8-1-4-10(14)5-2-8/h1-2,4-5,9,11,14-15H,3,6-7,12-13H2/t9-,11+/m1/s1

> <INCHI_KEY>
InChIKey=VTBBVHAOBBELOH-KOLCDFICSA-N

> <SMILES>
[H][C@](N)(O)CC[C@@]([H])(N)CC1=CC=C(O)C=C1

> <JCHEM_ACCEPTOR_COUNT>
4

> <JCHEM_DONOR_COUNT>
4

> <JCHEM_ACIDIC_PKA>
10.42

> <JCHEM_BASIC_PKA>
9.78

> <JCHEM_PHYSIOLOGICAL_CHARGE>
2

> <ALOGPS_LOGP>
-0.82

> <JCHEM_LOGP>
-0.14

> <ALOGPS_LOGS>
-2

> <JCHEM_POLARIZABILITY>
23.58

> <JCHEM_POLAR_SURFACE_AREA>
92.5

> <JCHEM_REFRACTIVITY>
59.54

> <JCHEM_ROTATABLE_BOND_COUNT>
5

> <ALOGPS_SOLUBILITY>
2.17e+00 g/l __ 

$$$$
