HTC
  Mrv0541 02241213442D          

 22 23  0  0  0  0            999 V2000
   -0.3824    0.3298    0.0000 N   0  0  0  0  0  0  0  0  0  0  0  0
   -0.3824   -0.4952    0.0000 S   0  0  0  0  0  0  0  0  0  0  0  0
    0.4426   -0.4952    0.0000 O   0  0  0  0  0  0  0  0  0  0  0  0
   -1.2074   -0.4952    0.0000 O   0  0  0  0  0  0  0  0  0  0  0  0
   -0.3824   -1.3202    0.0000 C   0  0  0  0  0  0  0  0  0  0  0  0
    0.2850   -1.8051    0.0000 C   0  0  0  0  0  0  0  0  0  0  0  0
    0.0301   -2.5897    0.0000 C   0  0  0  0  0  0  0  0  0  0  0  0
   -0.7949   -2.5897    0.0000 S   0  0  0  0  0  0  0  0  0  0  0  0
   -1.0498   -1.8051    0.0000 C   0  0  0  0  0  0  0  0  0  0  0  0
   -1.8345   -1.5502    0.0000 C   0  0  0  0  0  0  0  0  0  0  0  0
   -2.4476   -2.1022    0.0000 O   0  0  0  0  0  0  0  0  0  0  0  0
   -2.0060   -0.7432    0.0000 O   0  0  0  0  0  0  0  0  0  0  0  0
    0.3321    0.7423    0.0000 C   0  0  0  0  0  0  0  0  0  0  0  0
    0.3321    1.5673    0.0000 C   0  0  0  0  0  0  0  0  0  0  0  0
    1.0465    1.9798    0.0000 C   0  0  0  0  0  0  0  0  0  0  0  0
    1.7610    1.5673    0.0000 C   0  0  0  0  0  0  0  0  0  0  0  0
    1.7610    0.7423    0.0000 C   0  0  0  0  0  0  0  0  0  0  0  0
    1.0465    0.3298    0.0000 C   0  0  0  0  0  0  0  0  0  0  0  0
   -0.3824    1.9798    0.0000 O   0  0  0  0  0  0  0  0  0  0  0  0
    2.4755    1.9798    0.0000 C   0  0  0  0  0  0  0  0  0  0  0  0
    2.4755    2.8048    0.0000 O   0  0  0  0  0  0  0  0  0  0  0  0
    3.1900    1.5673    0.0000 O   0  0  0  0  0  0  0  0  0  0  0  0
  1  2  1  0  0  0  0
  1 13  1  0  0  0  0
  2  3  2  0  0  0  0
  2  4  2  0  0  0  0
  2  5  1  0  0  0  0
  5  6  1  0  0  0  0
  5  9  2  0  0  0  0
  6  7  2  0  0  0  0
  7  8  1  0  0  0  0
  8  9  1  0  0  0  0
  9 10  1  0  0  0  0
 10 11  1  0  0  0  0
 10 12  2  0  0  0  0
 13 14  2  0  0  0  0
 13 18  1  0  0  0  0
 14 15  1  0  0  0  0
 14 19  1  0  0  0  0
 15 16  2  0  0  0  0
 16 17  1  0  0  0  0
 16 20  1  0  0  0  0
 17 18  2  0  0  0  0
 20 21  1  0  0  0  0
 20 22  2  0  0  0  0
M  END
> <DRUGBANK_ID>
DB07927

> <DRUG_GROUPS>
experimental

> <GENERIC_NAME>
3-{[(4-CARBOXY-2-HYDROXYANILINE]SULFONYL}THIOPHENE-2-CARBOXYLIC ACID

> <CHEMICAL_FORMULA>
C12H9NO7S2

> <MOLECULAR_WEIGHT>
343.332

> <EXACT_MASS>
342.982043027

> <IUPAC_NAME>
3-[(4-carboxy-2-hydroxyphenyl)sulfamoyl]thiophene-2-carboxylic acid

> <IUPAC_TRADITIONAL_NAME>
3-[(4-carboxy-2-hydroxyphenyl)sulfamoyl]thiophene-2-carboxylic acid

> <INCHI_IDENTIFIER>
InChI=1S/C12H9NO7S2/c14-8-5-6(11(15)16)1-2-7(8)13-22(19,20)9-3-4-21-10(9)12(17)18/h1-5,13-14H,(H,15,16)(H,17,18)

> <INCHI_KEY>
InChIKey=RDPXXOOKKRIKFN-UHFFFAOYSA-N

> <SMILES>
OC(=O)C1=C(C=CS1)S(=O)(=O)NC1=C(O)C=C(C=C1)C(O)=O

> <JCHEM_ACCEPTOR_COUNT>
7

> <JCHEM_DONOR_COUNT>
4

> <JCHEM_ACIDIC_PKA>
3.04

> <JCHEM_BASIC_PKA>
-6.2

> <JCHEM_PHYSIOLOGICAL_CHARGE>
-3

> <ALOGPS_LOGP>
1.67

> <JCHEM_LOGP>
2.04

> <ALOGPS_LOGS>
-3.3

> <JCHEM_POLARIZABILITY>
30.73

> <JCHEM_POLAR_SURFACE_AREA>
141

> <JCHEM_REFRACTIVITY>
76.27

> <JCHEM_ROTATABLE_BOND_COUNT>
4

> <ALOGPS_SOLUBILITY>
1.87e-01 g/l __ 

$$$$
