59A
  Mrv0541 02241213142D          

 23 23  0  0  0  0            999 V2000
   -2.0283    1.0166    0.0000 C   0  0  1  0  0  0  0  0  0  0  0  0
   -1.6158    1.7311    0.0000 O   0  0  0  0  0  0  0  0  0  0  0  0
   -1.2033    1.0166    0.0000 C   0  0  2  0  0  0  0  0  0  0  0  0
   -0.4888    0.6041    0.0000 C   0  0  0  0  0  0  0  0  0  0  0  0
   -0.4888   -0.2209    0.0000 O   0  0  0  0  0  0  0  0  0  0  0  0
    0.2257    1.0166    0.0000 N   0  0  0  0  0  0  0  0  0  0  0  0
    0.9401    0.6041    0.0000 C   0  0  2  0  0  0  0  0  0  0  0  0
    0.9401   -0.2209    0.0000 C   0  0  0  0  0  0  0  0  0  0  0  0
    1.6546   -0.6334    0.0000 O   0  0  0  0  0  0  0  0  0  0  0  0
    1.6546    1.0166    0.0000 C   0  0  2  0  0  0  0  0  0  0  0  0
    2.3691    0.6041    0.0000 C   0  0  0  0  0  0  0  0  0  0  0  0
    1.6546    1.8416    0.0000 C   0  0  0  0  0  0  0  0  0  0  0  0
    3.0836    1.0166    0.0000 C   0  0  0  0  0  0  0  0  0  0  0  0
    0.2257   -0.6334    0.0000 O   0  0  0  0  0  0  0  0  0  0  0  0
   -2.7427    0.6041    0.0000 C   0  0  0  0  0  0  0  0  0  0  0  0
   -3.4572    1.0166    0.0000 O   0  0  0  0  0  0  0  0  0  0  0  0
   -2.7427   -0.2209    0.0000 O   0  0  0  0  0  0  0  0  0  0  0  0
   -3.4572   -0.6334    0.0000 C   0  0  0  0  0  0  0  0  0  0  0  0
   -3.4572   -1.4584    0.0000 C   0  0  0  0  0  0  0  0  0  0  0  0
   -2.4412    1.4295    0.0000 H   0  0  0  0  0  0  0  0  0  0  0  0
   -1.3544    0.4526    0.0000 H   0  0  0  0  0  0  0  0  0  0  0  0
    0.4344    0.3122    0.0000 H   0  0  0  0  0  0  0  0  0  0  0  0
    1.6546    0.4327    0.0000 H   0  0  0  0  0  0  0  0  0  0  0  0
  1  2  1  0  0  0  0
  1  3  1  0  0  0  0
  1 15  1  1  0  0  0
  1 20  1  6  0  0  0
  2  3  1  0  0  0  0
  3  4  1  6  0  0  0
  3 21  1  1  0  0  0
  4  5  2  0  0  0  0
  4  6  1  0  0  0  0
  7  6  1  1  0  0  0
  7  8  1  0  0  0  0
  7 10  1  0  0  0  0
  7 22  1  6  0  0  0
  8  9  1  0  0  0  0
  8 14  2  0  0  0  0
 10 11  1  0  0  0  0
 10 12  1  6  0  0  0
 10 23  1  6  0  0  0
 11 13  1  0  0  0  0
 15 16  2  0  0  0  0
 15 17  1  0  0  0  0
 17 18  1  0  0  0  0
 18 19  1  0  0  0  0
M  END
> <DRUGBANK_ID>
DB07160

> <DRUG_GROUPS>
experimental

> <GENERIC_NAME>
N-{[(2S,3S)-3-(ETHOXYCARBONYL)OXIRAN-2-YL]CARBONYL}-L-ISOLEUCINE

> <CHEMICAL_FORMULA>
C12H19NO6

> <MOLECULAR_WEIGHT>
273.2824

> <EXACT_MASS>
273.121237345

> <IUPAC_NAME>
(2S,3S)-2-{[(2S,3S)-3-(ethoxycarbonyl)oxiran-2-yl]formamido}-3-methylpentanoic acid

> <IUPAC_TRADITIONAL_NAME>
(2S,3S)-2-{[(2S,3S)-3-(ethoxycarbonyl)oxiran-2-yl]formamido}-3-methylpentanoic acid

> <INCHI_IDENTIFIER>
InChI=1S/C12H19NO6/c1-4-6(3)7(11(15)16)13-10(14)8-9(19-8)12(17)18-5-2/h6-9H,4-5H2,1-3H3,(H,13,14)(H,15,16)/t6-,7-,8-,9-/m0/s1

> <INCHI_KEY>
InChIKey=MZJYLQZZISBOTF-JBDRJPRFSA-N

> <SMILES>
[H][C@](C)(CC)[C@]([H])(NC(=O)[C@@]1([H])O[C@]1([H])C(=O)OCC)C(O)=O

> <JCHEM_ACCEPTOR_COUNT>
5

> <JCHEM_DONOR_COUNT>
2

> <JCHEM_ACIDIC_PKA>
3.55

> <JCHEM_BASIC_PKA>
-4.3

> <JCHEM_PHYSIOLOGICAL_CHARGE>
-1

> <ALOGPS_LOGP>
0.88

> <JCHEM_LOGP>
0.63

> <ALOGPS_LOGS>
-1

> <JCHEM_POLARIZABILITY>
27.57

> <JCHEM_POLAR_SURFACE_AREA>
105.23

> <JCHEM_REFRACTIVITY>
63.12

> <JCHEM_ROTATABLE_BOND_COUNT>
8

> <ALOGPS_SOLUBILITY>
2.76e+01 g/l __ 

$$$$
