IHU
  Mrv0541 02241213462D          

 23 24  0  0  0  0            999 V2000
   -2.2887   -1.5923    0.0000 C    0  0  0  0  0  0  0  0  0  0  0  0
   -1.5742   -1.1798    0.0000 O    0  0  0  0  0  0  0  0  0  0  0  0
   -1.5742   -0.3548    0.0000 C    0  0  0  0  0  0  0  0  0  0  0  0
   -2.2887    0.0577    0.0000 C    0  0  0  0  0  0  0  0  0  0  0  0
   -2.2887    0.8827    0.0000 C    0  0  0  0  0  0  0  0  0  0  0  0
   -1.5742    1.2952    0.0000 C    0  0  0  0  0  0  0  0  0  0  0  0
   -1.5742    2.1202    0.0000 O    0  0  0  0  0  0  0  0  0  0  0  0
   -0.8598    0.8827    0.0000 C    0  0  0  0  0  0  0  0  0  0  0  0
   -0.8598    0.0577    0.0000 C    0  0  0  0  0  0  0  0  0  0  0  0
   -0.1453   -0.3548    0.0000 N    0  0  0  0  0  0  0  0  0  0  0  0
    0.5692    0.0577    0.0000 C    0  0  0  0  0  0  0  0  0  0  0  0
    0.5692    0.8827    0.0000 O    0  0  0  0  0  0  0  0  0  0  0  0
    1.2836   -0.3548    0.0000 N    0  0  0  0  0  0  0  0  0  0  0  0
    1.9981    0.0577    0.0000 C    0  0  0  0  0  0  0  0  0  0  0  0
    1.9981    0.8827    0.0000 O    0  0  0  0  0  0  0  0  0  0  0  0
    2.7126   -0.3548    0.0000 C    0  0  0  0  0  0  0  0  0  0  0  0
    3.4271    0.0577    0.0000 C    0  0  0  0  0  0  0  0  0  0  0  0
    4.1415   -0.3548    0.0000 C    0  0  0  0  0  0  0  0  0  0  0  0
    4.1415   -1.1798    0.0000 C    0  0  0  0  0  0  0  0  0  0  0  0
    4.8560   -1.5923    0.0000 F    0  0  0  0  0  0  0  0  0  0  0  0
    3.4271   -1.5923    0.0000 C    0  0  0  0  0  0  0  0  0  0  0  0
    2.7126   -1.1798    0.0000 C    0  0  0  0  0  0  0  0  0  0  0  0
    1.9981   -1.5923    0.0000 Cl   0  0  0  0  0  0  0  0  0  0  0  0
  1  2  1  0  0  0  0
  2  3  1  0  0  0  0
  3  4  2  0  0  0  0
  3  9  1  0  0  0  0
  4  5  1  0  0  0  0
  5  6  2  0  0  0  0
  6  7  1  0  0  0  0
  6  8  1  0  0  0  0
  8  9  2  0  0  0  0
  9 10  1  0  0  0  0
 10 11  1  0  0  0  0
 11 12  2  0  0  0  0
 11 13  1  0  0  0  0
 13 14  1  0  0  0  0
 14 15  2  0  0  0  0
 14 16  1  0  0  0  0
 16 17  2  0  0  0  0
 16 22  1  0  0  0  0
 17 18  1  0  0  0  0
 18 19  2  0  0  0  0
 19 20  1  0  0  0  0
 19 21  1  0  0  0  0
 21 22  2  0  0  0  0
 22 23  1  0  0  0  0
M  END
> <DRUGBANK_ID>
DB07968

> <DRUG_GROUPS>
experimental

> <GENERIC_NAME>
N-(2-CHLORO-4-FLUOROBENZOYL)-N'-(5-HYDROXY-2-METHOXYPHENYL)UREA

> <CHEMICAL_FORMULA>
C15H12ClFN2O4

> <MOLECULAR_WEIGHT>
338.718

> <EXACT_MASS>
338.046962794

> <IUPAC_NAME>
1-[(2-chloro-4-fluorophenyl)carbonyl]-3-(5-hydroxy-2-methoxyphenyl)urea

> <IUPAC_TRADITIONAL_NAME>
1-[(2-chloro-4-fluorophenyl)carbonyl]-3-(5-hydroxy-2-methoxyphenyl)urea

> <INCHI_IDENTIFIER>
InChI=1S/C15H12ClFN2O4/c1-23-13-5-3-9(20)7-12(13)18-15(22)19-14(21)10-4-2-8(17)6-11(10)16/h2-7,20H,1H3,(H2,18,19,21,22)

> <INCHI_KEY>
InChIKey=RFOBTYLRURSVJE-UHFFFAOYSA-N

> <SMILES>
COC1=CC=C(O)C=C1NC(=O)NC(=O)C1=CC=C(F)C=C1Cl

> <JCHEM_ACCEPTOR_COUNT>
4

> <JCHEM_DONOR_COUNT>
3

> <JCHEM_ACIDIC_PKA>
7.19

> <JCHEM_BASIC_PKA>
-4.9

> <JCHEM_PHYSIOLOGICAL_CHARGE>
0

> <ALOGPS_LOGP>
3.53

> <JCHEM_LOGP>
3.01

> <ALOGPS_LOGS>
-4.5

> <JCHEM_POLARIZABILITY>
31.12

> <JCHEM_POLAR_SURFACE_AREA>
87.66

> <JCHEM_REFRACTIVITY>
83.3

> <JCHEM_ROTATABLE_BOND_COUNT>
3

> <ALOGPS_SOLUBILITY>
1.13e-02 g/l __ 

$$$$
