DET
  Mrv0541 02241213332D          

 15 14  0  0  0  0            999 V2000
   -3.1360   -0.2121    0.0000 N   0  3  0  0  0  0  0  0  0  0  0  0
   -3.8505   -0.6246    0.0000 O   0  5  0  0  0  0  0  0  0  0  0  0
   -2.7235   -0.9267    0.0000 C   0  0  0  0  0  0  0  0  0  0  0  0
   -3.5486    0.5024    0.0000 C   0  0  0  0  0  0  0  0  0  0  0  0
   -2.4215    0.2004    0.0000 C   0  0  0  0  0  0  0  0  0  0  0  0
   -1.7069   -0.2121    0.0000 C   0  0  0  0  0  0  0  0  0  0  0  0
   -0.9924    0.2004    0.0000 C   0  0  0  0  0  0  0  0  0  0  0  0
   -0.2779   -0.2121    0.0000 C   0  0  0  0  0  0  0  0  0  0  0  0
    0.4366    0.2004    0.0000 C   0  0  0  0  0  0  0  0  0  0  0  0
    1.1512   -0.2121    0.0000 C   0  0  0  0  0  0  0  0  0  0  0  0
    1.8656    0.2004    0.0000 C   0  0  0  0  0  0  0  0  0  0  0  0
    2.5802   -0.2121    0.0000 C   0  0  0  0  0  0  0  0  0  0  0  0
    3.2947    0.2004    0.0000 C   0  0  0  0  0  0  0  0  0  0  0  0
    4.0093   -0.2121    0.0000 C   0  0  0  0  0  0  0  0  0  0  0  0
    4.7238    0.2004    0.0000 C   0  0  0  0  0  0  0  0  0  0  0  0
  1  2  1  0  0  0  0
  1  3  1  0  0  0  0
  1  4  1  0  0  0  0
  1  5  1  0  0  0  0
  5  6  1  0  0  0  0
  6  7  1  0  0  0  0
  7  8  1  0  0  0  0
  8  9  1  0  0  0  0
  9 10  1  0  0  0  0
 10 11  1  0  0  0  0
 11 12  1  0  0  0  0
 12 13  1  0  0  0  0
 13 14  1  0  0  0  0
 14 15  1  0  0  0  0
M  END
> <DRUGBANK_ID>
DB07646

> <DRUG_GROUPS>
experimental

> <GENERIC_NAME>
UNDECYLAMINE-N,N-DIMETHYL-N-OXIDE

> <CHEMICAL_FORMULA>
C13H29NO

> <MOLECULAR_WEIGHT>
215.3755

> <EXACT_MASS>
215.224914555

> <IUPAC_NAME>
N,N-dimethylundecanamine oxide

> <IUPAC_TRADITIONAL_NAME>
N,N-dimethylundecanamine oxide

> <INCHI_IDENTIFIER>
InChI=1S/C13H29NO/c1-4-5-6-7-8-9-10-11-12-13-14(2,3)15/h4-13H2,1-3H3

> <INCHI_KEY>
InChIKey=OZHBUVQCJMARBN-UHFFFAOYSA-N

> <SMILES>
CCCCCCCCCCC[N+](C)(C)[O-]

> <JCHEM_ACCEPTOR_COUNT>
1

> <JCHEM_DONOR_COUNT>
0

> <JCHEM_BASIC_PKA>
4.17

> <JCHEM_PHYSIOLOGICAL_CHARGE>
0

> <ALOGPS_LOGP>
1.78

> <JCHEM_LOGP>
3.5

> <ALOGPS_LOGS>
-5.9

> <JCHEM_POLARIZABILITY>
28.95

> <JCHEM_POLAR_SURFACE_AREA>
26.88

> <JCHEM_REFRACTIVITY>
68.11

> <JCHEM_ROTATABLE_BOND_COUNT>
10

> <ALOGPS_SOLUBILITY>
2.84e-04 g/l __ 

$$$$
