C27
  Mrv0541 02241213292D          

 26 28  0  0  0  0            999 V2000
    3.5186    1.7782    0.0000 C   0  0  0  0  0  0  0  0  0  0  0  0
    2.8041    1.3657    0.0000 O   0  0  0  0  0  0  0  0  0  0  0  0
    2.8041    0.5407    0.0000 C   0  0  0  0  0  0  0  0  0  0  0  0
    3.5186    0.1282    0.0000 C   0  0  0  0  0  0  0  0  0  0  0  0
    3.5186   -0.6968    0.0000 C   0  0  0  0  0  0  0  0  0  0  0  0
    2.8041   -1.1093    0.0000 C   0  0  0  0  0  0  0  0  0  0  0  0
    2.0896   -0.6968    0.0000 C   0  0  0  0  0  0  0  0  0  0  0  0
    2.0896    0.1282    0.0000 C   0  0  0  0  0  0  0  0  0  0  0  0
    1.3751   -1.1093    0.0000 C   0  0  0  0  0  0  0  0  0  0  0  0
    1.3751   -1.9343    0.0000 C   0  0  0  0  0  0  0  0  0  0  0  0
    0.6607   -2.3468    0.0000 C   0  0  0  0  0  0  0  0  0  0  0  0
   -0.0538   -1.9343    0.0000 C   0  0  0  0  0  0  0  0  0  0  0  0
   -0.0538   -1.1093    0.0000 C   0  0  0  0  0  0  0  0  0  0  0  0
   -0.7683   -0.6968    0.0000 C   0  0  0  0  0  0  0  0  0  0  0  0
   -0.7683    0.1282    0.0000 C   0  0  0  0  0  0  0  0  0  0  0  0
   -1.4827    0.5407    0.0000 C   0  0  2  0  0  0  0  0  0  0  0  0
   -0.9524    1.1727    0.0000 C   0  0  0  0  0  0  0  0  0  0  0  0
   -1.7649   -0.2345    0.0000 C   0  0  0  0  0  0  0  0  0  0  0  0
   -2.5774   -0.3778    0.0000 C   0  0  0  0  0  0  0  0  0  0  0  0
   -2.8595   -1.1530    0.0000 O   0  0  0  0  0  0  0  0  0  0  0  0
   -3.1077    0.2542    0.0000 N   0  0  0  0  0  0  0  0  0  0  0  0
   -3.9201    0.1110    0.0000 C   0  0  0  0  0  0  0  0  0  0  0  0
   -2.8255    1.0295    0.0000 C   0  0  0  0  0  0  0  0  0  0  0  0
   -2.0130    1.1727    0.0000 N   0  0  0  0  0  0  0  0  0  0  0  0
   -3.3558    1.6614    0.0000 N   0  0  0  0  0  0  0  0  0  0  0  0
    0.6607   -0.6968    0.0000 C   0  0  0  0  0  0  0  0  0  0  0  0
  1  2  1  0  0  0  0
  2  3  1  0  0  0  0
  3  4  1  0  0  0  0
  3  8  2  0  0  0  0
  4  5  2  0  0  0  0
  5  6  1  0  0  0  0
  6  7  2  0  0  0  0
  7  8  1  0  0  0  0
  7  9  1  0  0  0  0
  9 10  1  0  0  0  0
  9 26  2  0  0  0  0
 10 11  2  0  0  0  0
 11 12  1  0  0  0  0
 12 13  2  0  0  0  0
 13 14  1  0  0  0  0
 13 26  1  0  0  0  0
 14 15  1  0  0  0  0
 16 15  1  6  0  0  0
 16 17  1  1  0  0  0
 16 18  1  0  0  0  0
 16 24  1  0  0  0  0
 18 19  1  0  0  0  0
 19 20  2  0  0  0  0
 19 21  1  0  0  0  0
 21 22  1  0  0  0  0
 21 23  1  0  0  0  0
 23 24  2  0  0  0  0
 23 25  1  0  0  0  0
M  END
> <DRUGBANK_ID>
DB07519

> <DRUG_GROUPS>
experimental

> <GENERIC_NAME>
(6R)-2-amino-6-[2-(3'-methoxybiphenyl-3-yl)ethyl]-3,6-dimethyl-5,6-dihydropyrimidin-4(3H)-one

> <CHEMICAL_FORMULA>
C21H25N3O2

> <MOLECULAR_WEIGHT>
351.4421

> <EXACT_MASS>
351.194677059

> <IUPAC_NAME>
(6R)-2-amino-6-{2-[3-(3-methoxyphenyl)phenyl]ethyl}-3,6-dimethyl-3,4,5,6-tetrahydropyrimidin-4-one

> <IUPAC_TRADITIONAL_NAME>
(6R)-2-amino-6-{2-[3-(3-methoxyphenyl)phenyl]ethyl}-3,6-dimethyl-5H-pyrimidin-4-one

> <INCHI_IDENTIFIER>
InChI=1S/C21H25N3O2/c1-21(14-19(25)24(2)20(22)23-21)11-10-15-6-4-7-16(12-15)17-8-5-9-18(13-17)26-3/h4-9,12-13H,10-11,14H2,1-3H3,(H2,22,23)/t21-/m1/s1

> <INCHI_KEY>
InChIKey=VDFBMQAUECXNKR-OAQYLSRUSA-N

> <SMILES>
COC1=CC(=CC=C1)C1=CC(CC[C@]2(C)CC(=O)N(C)C(N)=N2)=CC=C1

> <JCHEM_ACCEPTOR_COUNT>
4

> <JCHEM_DONOR_COUNT>
1

> <JCHEM_ACIDIC_PKA>
19.17

> <JCHEM_BASIC_PKA>
6.79

> <JCHEM_PHYSIOLOGICAL_CHARGE>
0

> <ALOGPS_LOGP>
3.5

> <JCHEM_LOGP>
3.37

> <ALOGPS_LOGS>
-5

> <JCHEM_POLARIZABILITY>
39.61

> <JCHEM_POLAR_SURFACE_AREA>
67.92

> <JCHEM_REFRACTIVITY>
102.7

> <JCHEM_ROTATABLE_BOND_COUNT>
5

> <ALOGPS_SOLUBILITY>
3.84e-03 g/l __ 

$$$$
