HOC
  Mrv0541 02241213432D          

 12 11  0  0  0  0            999 V2000
   -2.0779    0.1218    0.0000 C   0  0  0  0  0  0  0  0  0  0  0  0
   -1.3634   -0.2907    0.0000 C   0  0  0  0  0  0  0  0  0  0  0  0
    2.2093    0.9469    0.0000 O   0  0  0  0  0  0  0  0  0  0  0  0
    2.9238   -0.2907    0.0000 C   0  0  0  0  0  0  0  0  0  0  0  0
    2.2093    0.1218    0.0000 C   0  0  2  0  0  0  0  0  0  0  0  0
    1.4947   -0.2907    0.0000 C   0  0  0  0  0  0  0  0  0  0  0  0
    0.7802    0.1218    0.0000 C   0  0  0  0  0  0  0  0  0  0  0  0
    0.0657   -0.2907    0.0000 C   0  0  0  0  0  0  0  0  0  0  0  0
   -0.6488    0.1218    0.0000 C   0  0  0  0  0  0  0  0  0  0  0  0
    3.6383    0.1218    0.0000 O   0  0  0  0  0  0  0  0  0  0  0  0
    2.9238   -1.1158    0.0000 O   0  0  0  0  0  0  0  0  0  0  0  0
    2.7150    0.4137    0.0000 H   0  0  0  0  0  0  0  0  0  0  0  0
  1  2  1  0  0  0  0
  2  9  1  0  0  0  0
  5  3  1  6  0  0  0
  4  5  1  0  0  0  0
  4 10  1  0  0  0  0
  4 11  2  0  0  0  0
  5  6  1  0  0  0  0
  5 12  1  1  0  0  0
  6  7  1  0  0  0  0
  7  8  1  0  0  0  0
  8  9  1  0  0  0  0
M  END
> <DRUGBANK_ID>
DB07907

> <DRUG_GROUPS>
experimental

> <GENERIC_NAME>
(2S)-2-HYDROXYOCTANOIC ACID

> <CHEMICAL_FORMULA>
C8H16O3

> <MOLECULAR_WEIGHT>
160.2108

> <EXACT_MASS>
160.109944378

> <IUPAC_NAME>
(2S)-2-hydroxyoctanoic acid

> <IUPAC_TRADITIONAL_NAME>
(2S)-2-hydroxyoctanoic acid

> <INCHI_IDENTIFIER>
InChI=1S/C8H16O3/c1-2-3-4-5-6-7(9)8(10)11/h7,9H,2-6H2,1H3,(H,10,11)/t7-/m0/s1

> <INCHI_KEY>
InChIKey=JKRDADVRIYVCCY-ZETCQYMHSA-N

> <SMILES>
[H][C@](O)(CCCCCC)C(O)=O

> <JCHEM_ACCEPTOR_COUNT>
3

> <JCHEM_DONOR_COUNT>
2

> <JCHEM_ACIDIC_PKA>
4.42

> <JCHEM_BASIC_PKA>
-3.8

> <JCHEM_PHYSIOLOGICAL_CHARGE>
-1

> <ALOGPS_LOGP>
1.8

> <JCHEM_LOGP>
1.83

> <ALOGPS_LOGS>
-1.2

> <JCHEM_POLARIZABILITY>
18.19

> <JCHEM_POLAR_SURFACE_AREA>
57.53

> <JCHEM_REFRACTIVITY>
41.77

> <JCHEM_ROTATABLE_BOND_COUNT>
6

> <ALOGPS_SOLUBILITY>
1.12e+01 g/l __ 

$$$$
