GSG
  Mrv0541 02241213412D          

 29 32  0  0  0  0            999 V2000
   -1.6791   -2.1517    0.0000 C   0  0  0  0  0  0  0  0  0  0  0  0
   -2.2432   -2.7538    0.0000 C   0  0  0  0  0  0  0  0  0  0  0  0
   -3.0466   -2.5664    0.0000 C   0  0  0  0  0  0  0  0  0  0  0  0
   -3.2860   -1.7769    0.0000 C   0  0  0  0  0  0  0  0  0  0  0  0
   -2.7220   -1.1748    0.0000 C   0  0  0  0  0  0  0  0  0  0  0  0
   -1.9186   -1.3622    0.0000 C   0  0  0  0  0  0  0  0  0  0  0  0
   -0.8757   -2.3391    0.0000 N   0  0  0  0  0  0  0  0  0  0  0  0
   -0.3117   -1.7370    0.0000 C   0  0  0  0  0  0  0  0  0  0  0  0
   -0.5511   -0.9475    0.0000 O   0  0  0  0  0  0  0  0  0  0  0  0
   -2.0037   -3.5433    0.0000 C   0  0  0  0  0  0  0  0  0  0  0  0
   -2.5677   -4.1454    0.0000 C   0  0  0  0  0  0  0  0  0  0  0  0
    0.4917   -1.9244    0.0000 O   0  0  0  0  0  0  0  0  0  0  0  0
    1.0557   -1.3223    0.0000 C   0  0  0  0  0  0  0  0  0  0  0  0
    0.8163   -0.5328    0.0000 C   0  0  0  0  0  0  0  0  0  0  0  0
    1.3803    0.0693    0.0000 C   0  0  0  0  0  0  0  0  0  0  0  0
    2.1838   -0.1181    0.0000 C   0  0  0  0  0  0  0  0  0  0  0  0
    2.8606    0.3535    0.0000 N   0  0  0  0  0  0  0  0  0  0  0  0
    2.8769    1.1784    0.0000 C   0  0  0  0  0  0  0  0  0  0  0  0
    3.5184   -0.1444    0.0000 C   0  0  2  0  0  0  0  0  0  0  0  0
    3.2480   -0.9239    0.0000 C   0  0  2  0  0  0  0  0  0  0  0  0
    2.4232   -0.9076    0.0000 C   0  0  0  0  0  0  0  0  0  0  0  0
    1.8592   -1.5097    0.0000 C   0  0  0  0  0  0  0  0  0  0  0  0
    2.9777   -1.7033    0.0000 C   0  0  0  0  0  0  0  0  0  0  0  0
    3.9058   -1.4219    0.0000 C   0  0  0  0  0  0  0  0  0  0  0  0
    4.5827   -0.9502    0.0000 C   0  0  0  0  0  0  0  0  0  0  0  0
    4.3432   -0.1607    0.0000 N   0  3  2  0  0  0  0  0  0  0  0  0
    4.4542    0.6568    0.0000 O   0  5  0  0  0  0  0  0  0  0  0  0
    5.1000    0.1679    0.0000 C   0  0  0  0  0  0  0  0  0  0  0  0
    3.7097    0.4072    0.0000 H   0  0  0  0  0  0  0  0  0  0  0  0
  1  2  1  0  0  0  0
  1  6  2  0  0  0  0
  1  7  1  0  0  0  0
  2  3  2  0  0  0  0
  2 10  1  0  0  0  0
  3  4  1  0  0  0  0
  4  5  2  0  0  0  0
  5  6  1  0  0  0  0
  7  8  1  0  0  0  0
  8  9  2  0  0  0  0
  8 12  1  0  0  0  0
 10 11  1  0  0  0  0
 12 13  1  0  0  0  0
 13 14  2  0  0  0  0
 13 22  1  0  0  0  0
 14 15  1  0  0  0  0
 15 16  2  0  0  0  0
 16 17  1  0  0  0  0
 16 21  1  0  0  0  0
 17 18  1  0  0  0  0
 17 19  1  0  0  0  0
 19 20  1  0  0  0  0
 19 26  1  0  0  0  0
 19 29  1  6  0  0  0
 20 21  1  0  0  0  0
 20 23  1  1  0  0  0
 20 24  1  0  0  0  0
 21 22  2  0  0  0  0
 24 25  1  0  0  0  0
 25 26  1  0  0  0  0
 26 27  1  1  0  0  0
 26 28  1  6  0  0  0
M  END
> <DRUGBANK_ID>
DB07846

> <DRUG_GROUPS>
experimental

> <GENERIC_NAME>
1S,3AS,8AS-TRIMETHYL-1-OXIDO-1,2,3,3A,8,8A-HEXAHYDROPYRROLO[2,3-B]INDOL-5-YL 2-ETHYLPHENYLCARBAMATE

> <CHEMICAL_FORMULA>
C22H27N3O3

> <MOLECULAR_WEIGHT>
381.4681

> <EXACT_MASS>
381.205241745

> <IUPAC_NAME>
(1S,3aR,8aS)-5-{[(2-ethylphenyl)carbamoyl]oxy}-1,3a,8-trimethyl-1H,2H,3H,3aH,8H,8aH-pyrrolo[2,3-b]indol-1-ium-1-olate

> <IUPAC_TRADITIONAL_NAME>
(1S,3aR,8aS)-5-{[(2-ethylphenyl)carbamoyl]oxy}-1,3a,8-trimethyl-2H,3H,8aH-pyrrolo[2,3-b]indol-1-ium-1-olate

> <INCHI_IDENTIFIER>
InChI=1S/C22H27N3O3/c1-5-15-8-6-7-9-18(15)23-21(26)28-16-10-11-19-17(14-16)22(2)12-13-25(4,27)20(22)24(19)3/h6-11,14,20H,5,12-13H2,1-4H3,(H,23,26)/t20-,22+,25-/m0/s1

> <INCHI_KEY>
InChIKey=MVHRCJQCKYPDRL-HOKHCIIBSA-N

> <SMILES>
[H][C@@]12N(C)C3=CC=C(OC(=O)NC4=CC=CC=C4CC)C=C3[C@@]1(C)CC[N@+]2(C)[O-]

> <JCHEM_ACCEPTOR_COUNT>
4

> <JCHEM_DONOR_COUNT>
1

> <JCHEM_ACIDIC_PKA>
12.9

> <JCHEM_BASIC_PKA>
0.42

> <JCHEM_PHYSIOLOGICAL_CHARGE>
0

> <ALOGPS_LOGP>
2.42

> <JCHEM_LOGP>
4.08

> <ALOGPS_LOGS>
-4.6

> <JCHEM_POLARIZABILITY>
42.36

> <JCHEM_POLAR_SURFACE_AREA>
68.45

> <JCHEM_REFRACTIVITY>
111.64

> <JCHEM_ROTATABLE_BOND_COUNT>
4

> <ALOGPS_SOLUBILITY>
9.08e-03 g/l __ 

$$$$
