BBB
  Mrv0541 02241213262D          

 29 31  0  0  0  0            999 V2000
   -3.7052   -0.7904    0.0000 O   0  0  0  0  0  0  0  0  0  0  0  0
   -2.9907   -0.3779    0.0000 C   0  0  0  0  0  0  0  0  0  0  0  0
   -2.2762   -0.7904    0.0000 C   0  0  0  0  0  0  0  0  0  0  0  0
   -1.5618   -0.3779    0.0000 O   0  0  0  0  0  0  0  0  0  0  0  0
   -0.8473   -0.7904    0.0000 C   0  0  0  0  0  0  0  0  0  0  0  0
   -0.1328   -0.3779    0.0000 N   0  0  0  0  0  0  0  0  0  0  0  0
   -0.1328    0.4471    0.0000 C   0  0  0  0  0  0  0  0  0  0  0  0
   -0.8473    0.8596    0.0000 O   0  0  0  0  0  0  0  0  0  0  0  0
    0.5817    0.8596    0.0000 N   0  0  0  0  0  0  0  0  0  0  0  0
    1.2961    0.4471    0.0000 C   0  0  0  0  0  0  0  0  0  0  0  0
    2.0106    0.8596    0.0000 O   0  0  0  0  0  0  0  0  0  0  0  0
    0.5817   -0.7904    0.0000 C   0  0  0  0  0  0  0  0  0  0  0  0
    1.2961   -0.3779    0.0000 C   0  0  0  0  0  0  0  0  0  0  0  0
    2.0106   -0.7904    0.0000 C   0  0  0  0  0  0  0  0  0  0  0  0
    2.7251   -0.3779    0.0000 C   0  0  0  0  0  0  0  0  0  0  0  0
    2.7251    0.4471    0.0000 C   0  0  0  0  0  0  0  0  0  0  0  0
    3.4395    0.8596    0.0000 C   0  0  0  0  0  0  0  0  0  0  0  0
    4.1540    0.4471    0.0000 C   0  0  0  0  0  0  0  0  0  0  0  0
    3.4395   -0.7904    0.0000 C   0  0  0  0  0  0  0  0  0  0  0  0
    4.1540   -0.3779    0.0000 C   0  0  0  0  0  0  0  0  0  0  0  0
    4.8685   -0.7904    0.0000 O   0  0  0  0  0  0  0  0  0  0  0  0
    5.5830   -0.3779    0.0000 C   0  0  0  0  0  0  0  0  0  0  0  0
    6.2974   -0.7904    0.0000 C   0  0  0  0  0  0  0  0  0  0  0  0
    7.0119   -0.3779    0.0000 C   0  0  0  0  0  0  0  0  0  0  0  0
    7.7264   -0.7904    0.0000 C   0  0  0  0  0  0  0  0  0  0  0  0
    7.7264   -1.6154    0.0000 C   0  0  0  0  0  0  0  0  0  0  0  0
    7.0119   -2.0279    0.0000 C   0  0  0  0  0  0  0  0  0  0  0  0
    6.2974   -1.6154    0.0000 C   0  0  0  0  0  0  0  0  0  0  0  0
    0.5817   -1.6154    0.0000 O   0  0  0  0  0  0  0  0  0  0  0  0
  1  2  1  0  0  0  0
  2  3  1  0  0  0  0
  3  4  1  0  0  0  0
  4  5  1  0  0  0  0
  5  6  1  0  0  0  0
  6  7  1  0  0  0  0
  6 12  1  0  0  0  0
  7  8  2  0  0  0  0
  7  9  1  0  0  0  0
  9 10  1  0  0  0  0
 10 11  2  0  0  0  0
 10 13  1  0  0  0  0
 12 13  2  0  0  0  0
 12 29  1  0  0  0  0
 13 14  1  0  0  0  0
 14 15  1  0  0  0  0
 15 16  2  0  0  0  0
 15 19  1  0  0  0  0
 16 17  1  0  0  0  0
 17 18  2  0  0  0  0
 18 20  1  0  0  0  0
 19 20  2  0  0  0  0
 20 21  1  0  0  0  0
 21 22  1  0  0  0  0
 22 23  1  0  0  0  0
 23 24  2  0  0  0  0
 23 28  1  0  0  0  0
 24 25  1  0  0  0  0
 25 26  2  0  0  0  0
 26 27  1  0  0  0  0
 27 28  2  0  0  0  0
M  END
> <DRUGBANK_ID>
DB07439

> <DRUG_GROUPS>
experimental

> <GENERIC_NAME>
1-((2-HYDROXYETHOXY)METHYL)-5-(3-(BENZYLOXY)BENZYL)-6-HYDROXYPYRIMIDINE-2,4(1H,3H)-DIONE

> <CHEMICAL_FORMULA>
C21H22N2O6

> <MOLECULAR_WEIGHT>
398.4092

> <EXACT_MASS>
398.147786446

> <IUPAC_NAME>
5-{[3-(benzyloxy)phenyl]methyl}-6-hydroxy-1-[(2-hydroxyethoxy)methyl]-1,2,3,4-tetrahydropyrimidine-2,4-dione

> <IUPAC_TRADITIONAL_NAME>
5-{[3-(benzyloxy)phenyl]methyl}-6-hydroxy-1-[(2-hydroxyethoxy)methyl]-3H-pyrimidine-2,4-dione

> <INCHI_IDENTIFIER>
InChI=1S/C21H22N2O6/c24-9-10-28-14-23-20(26)18(19(25)22-21(23)27)12-16-7-4-8-17(11-16)29-13-15-5-2-1-3-6-15/h1-8,11,24,26H,9-10,12-14H2,(H,22,25,27)

> <INCHI_KEY>
InChIKey=CAWXCABXSPTFRN-UHFFFAOYSA-N

> <SMILES>
OCCOCN1C(=O)NC(=O)C(CC2=CC=CC(OCC3=CC=CC=C3)=C2)=C1O

> <JCHEM_ACCEPTOR_COUNT>
6

> <JCHEM_DONOR_COUNT>
3

> <JCHEM_ACIDIC_PKA>
6.64

> <JCHEM_BASIC_PKA>
-2.7

> <JCHEM_PHYSIOLOGICAL_CHARGE>
-1

> <ALOGPS_LOGP>
1.73

> <JCHEM_LOGP>
2.42

> <ALOGPS_LOGS>
-4.5

> <JCHEM_POLARIZABILITY>
40.95

> <JCHEM_POLAR_SURFACE_AREA>
108.33

> <JCHEM_REFRACTIVITY>
114.42

> <JCHEM_ROTATABLE_BOND_COUNT>
9

> <ALOGPS_SOLUBILITY>
1.22e-02 g/l __ 

$$$$
