GVR
  Mrv0541 02241213422D          

 31 34  0  0  0  0            999 V2000
    5.4857    8.1532    0.0000 O   0  0  0  0  0  0  0  0  0  0  0  0
    6.2002    7.7407    0.0000 C   0  0  0  0  0  0  0  0  0  0  0  0
    6.2002    6.9157    0.0000 N   0  0  0  0  0  0  0  0  0  0  0  0
    5.4857    6.5032    0.0000 O   0  0  0  0  0  0  0  0  0  0  0  0
    6.9147    8.1532    0.0000 C   0  0  1  0  0  0  0  0  0  0  0  0
    6.9147    8.9782    0.0000 C   0  0  0  0  0  0  0  0  0  0  0  0
    6.2002    9.3907    0.0000 C   0  0  0  0  0  0  0  0  0  0  0  0
    5.4857    8.9782    0.0000 C   0  0  0  0  0  0  0  0  0  0  0  0
    4.7712    9.3907    0.0000 C   0  0  0  0  0  0  0  0  0  0  0  0
    4.7712   10.2157    0.0000 C   0  0  0  0  0  0  0  0  0  0  0  0
    4.0568   10.6282    0.0000 C   0  0  0  0  0  0  0  0  0  0  0  0
    5.4857   10.6282    0.0000 C   0  0  0  0  0  0  0  0  0  0  0  0
    5.4857   11.4532    0.0000 C   0  0  0  0  0  0  0  0  0  0  0  0
    4.7712   11.8657    0.0000 C   0  0  0  0  0  0  0  0  0  0  0  0
    4.0568   11.4532    0.0000 C   0  0  0  0  0  0  0  0  0  0  0  0
    6.2002   10.2157    0.0000 C   0  0  0  0  0  0  0  0  0  0  0  0
    7.6291    7.7407    0.0000 N   0  0  0  0  0  0  0  0  0  0  0  0
    7.6291    6.9157    0.0000 S   0  0  0  0  0  0  0  0  0  0  0  0
    6.8041    6.9157    0.0000 O   0  0  0  0  0  0  0  0  0  0  0  0
    8.4541    6.9157    0.0000 O   0  0  0  0  0  0  0  0  0  0  0  0
    7.6291    6.0907    0.0000 C   0  0  0  0  0  0  0  0  0  0  0  0
    8.3436    5.6782    0.0000 C   0  0  0  0  0  0  0  0  0  0  0  0
    8.3436    4.8532    0.0000 C   0  0  0  0  0  0  0  0  0  0  0  0
    7.6291    4.4407    0.0000 C   0  0  0  0  0  0  0  0  0  0  0  0
    7.6291    3.6157    0.0000 C   0  0  0  0  0  0  0  0  0  0  0  0
    6.9147    4.8532    0.0000 C   0  0  0  0  0  0  0  0  0  0  0  0
    6.9147    5.6782    0.0000 C   0  0  0  0  0  0  0  0  0  0  0  0
    6.2002    4.4407    0.0000 C   0  0  0  0  0  0  0  0  0  0  0  0
    6.2002    3.6157    0.0000 C   0  0  0  0  0  0  0  0  0  0  0  0
    6.9147    3.2032    0.0000 C   0  0  0  0  0  0  0  0  0  0  0  0
    6.4090    8.4452    0.0000 H   0  0  0  0  0  0  0  0  0  0  0  0
  1  2  2  0  0  0  0
  2  3  1  0  0  0  0
  2  5  1  0  0  0  0
  3  4  1  0  0  0  0
  5  6  1  0  0  0  0
  5 17  1  6  0  0  0
  5 31  1  6  0  0  0
  6  7  1  0  0  0  0
  7  8  1  0  0  0  0
  7 16  2  0  0  0  0
  8  9  2  0  0  0  0
  9 10  1  0  0  0  0
 10 11  1  0  0  0  0
 10 12  2  0  0  0  0
 11 15  2  0  0  0  0
 12 13  1  0  0  0  0
 12 16  1  0  0  0  0
 13 14  2  0  0  0  0
 14 15  1  0  0  0  0
 17 18  1  0  0  0  0
 18 19  2  0  0  0  0
 18 20  2  0  0  0  0
 18 21  1  0  0  0  0
 21 22  1  0  0  0  0
 21 27  2  0  0  0  0
 22 23  2  0  0  0  0
 23 24  1  0  0  0  0
 24 25  1  0  0  0  0
 24 26  2  0  0  0  0
 25 30  2  0  0  0  0
 26 27  1  0  0  0  0
 26 28  1  0  0  0  0
 28 29  2  0  0  0  0
 29 30  1  0  0  0  0
M  END
> <DRUGBANK_ID>
DB07861

> <DRUG_GROUPS>
experimental

> <GENERIC_NAME>
(2R)-N-hydroxy-3-naphthalen-2-yl-2-[(naphthalen-2-ylsulfonyl)amino]propanamide

> <CHEMICAL_FORMULA>
C23H20N2O4S

> <MOLECULAR_WEIGHT>
420.481

> <EXACT_MASS>
420.114377828

> <IUPAC_NAME>
(2R)-N-hydroxy-3-(naphthalen-2-yl)-2-(naphthalene-2-sulfonamido)propanamide

> <IUPAC_TRADITIONAL_NAME>
(2R)-N-hydroxy-3-(naphthalen-2-yl)-2-(naphthalene-2-sulfonamido)propanamide

> <INCHI_IDENTIFIER>
InChI=1S/C23H20N2O4S/c26-23(24-27)22(14-16-9-10-17-5-1-3-7-19(17)13-16)25-30(28,29)21-12-11-18-6-2-4-8-20(18)15-21/h1-13,15,22,25,27H,14H2,(H,24,26)/t22-/m1/s1

> <INCHI_KEY>
InChIKey=MMOUXLMPQFMDRD-JOCHJYFZSA-N

> <SMILES>
[H][C@](CC1=CC2=C(C=CC=C2)C=C1)(NS(=O)(=O)C1=CC2=C(C=CC=C2)C=C1)C(=O)NO

> <JCHEM_ACCEPTOR_COUNT>
4

> <JCHEM_DONOR_COUNT>
3

> <JCHEM_ACIDIC_PKA>
8.69

> <JCHEM_BASIC_PKA>
-5.5

> <JCHEM_PHYSIOLOGICAL_CHARGE>
0

> <ALOGPS_LOGP>
3.14

> <JCHEM_LOGP>
3.67

> <ALOGPS_LOGS>
-6

> <JCHEM_POLARIZABILITY>
43.4

> <JCHEM_POLAR_SURFACE_AREA>
95.5

> <JCHEM_REFRACTIVITY>
114.8

> <JCHEM_ROTATABLE_BOND_COUNT>
5

> <ALOGPS_SOLUBILITY>
4.31e-04 g/l __ 

$$$$
