6C3
  Mrv0541 02241213162D          

 24 27  0  0  0  0            999 V2000
   -1.9886   -4.2400    0.0000 C    0  0  0  0  0  0  0  0  0  0  0  0
   -1.9886   -3.4150    0.0000 C    0  0  0  0  0  0  0  0  0  0  0  0
   -2.7031   -3.0025    0.0000 C    0  0  0  0  0  0  0  0  0  0  0  0
   -1.2742   -3.0025    0.0000 C    0  0  0  0  0  0  0  0  0  0  0  0
   -0.5597   -3.4150    0.0000 C    0  0  0  0  0  0  0  0  0  0  0  0
   -0.5597   -4.2400    0.0000 C    0  0  0  0  0  0  0  0  0  0  0  0
   -1.9886   -1.7650    0.0000 C    0  0  0  0  0  0  0  0  0  0  0  0
   -1.9886   -0.9400    0.0000 C    0  0  0  0  0  0  0  0  0  0  0  0
   -1.2742   -0.5275    0.0000 C    0  0  0  0  0  0  0  0  0  0  0  0
   -0.5597   -0.9400    0.0000 C    0  0  0  0  0  0  0  0  0  0  0  0
   -0.5597   -1.7650    0.0000 C    0  0  0  0  0  0  0  0  0  0  0  0
   -1.2742   -2.1775    0.0000 C    0  0  0  0  0  0  0  0  0  0  0  0
    0.9084   -3.3381    0.0000 C    0  0  0  0  0  0  0  0  0  0  0  0
    2.2810   -2.8112    0.0000 C    0  0  0  0  0  0  0  0  0  0  0  0
   -3.4176   -3.4150    0.0000 C    0  0  0  0  0  0  0  0  0  0  0  0
   -3.4176   -4.2400    0.0000 C    0  0  0  0  0  0  0  0  0  0  0  0
   -2.7031   -4.6525    0.0000 C    0  0  0  0  0  0  0  0  0  0  0  0
   -1.2742   -4.6525    0.0000 N    0  0  0  0  0  0  0  0  0  0  0  0
   -4.1321   -3.0025    0.0000 Cl   0  0  0  0  0  0  0  0  0  0  0  0
    0.1548   -4.6525    0.0000 O    0  0  0  0  0  0  0  0  0  0  0  0
    0.1548   -3.0025    0.0000 C    0  0  0  0  0  0  0  0  0  0  0  0
    0.2410   -2.1821    0.0000 O    0  0  0  0  0  0  0  0  0  0  0  0
    1.0480   -2.0105    0.0000 N    0  0  0  0  0  0  0  0  0  0  0  0
    1.4605   -2.7250    0.0000 C    0  0  0  0  0  0  0  0  0  0  0  0
  1  2  2  0  0  0  0
  1 17  1  0  0  0  0
  1 18  1  0  0  0  0
  2  3  1  0  0  0  0
  2  4  1  0  0  0  0
  3 15  2  0  0  0  0
  4 12  1  0  0  0  0
  4  5  2  0  0  0  0
  5 21  1  0  0  0  0
  5  6  1  0  0  0  0
  6 18  1  0  0  0  0
  6 20  2  0  0  0  0
  7  8  2  0  0  0  0
  7 12  1  0  0  0  0
  8  9  1  0  0  0  0
  9 10  2  0  0  0  0
 10 11  1  0  0  0  0
 11 12  2  0  0  0  0
 13 21  2  0  0  0  0
 13 24  1  0  0  0  0
 14 24  1  0  0  0  0
 15 19  1  0  0  0  0
 15 16  1  0  0  0  0
 16 17  2  0  0  0  0
 21 22  1  0  0  0  0
 22 23  1  0  0  0  0
 23 24  2  0  0  0  0
M  END
> <DRUGBANK_ID>
DB07202

> <DRUG_GROUPS>
experimental

> <GENERIC_NAME>
6-CHLORO-3-(3-METHYLISOXAZOL-5-YL)-4-PHENYLQUINOLIN-2(1H)-ONE

> <CHEMICAL_FORMULA>
C19H13ClN2O2

> <MOLECULAR_WEIGHT>
336.772

> <EXACT_MASS>
336.066555377

> <IUPAC_NAME>
6-chloro-3-(3-methyl-1,2-oxazol-5-yl)-4-phenyl-1,2-dihydroquinolin-2-one

> <IUPAC_TRADITIONAL_NAME>
6-chloro-3-(3-methyl-1,2-oxazol-5-yl)-4-phenyl-1H-quinolin-2-one

> <INCHI_IDENTIFIER>
InChI=1S/C19H13ClN2O2/c1-11-9-16(24-22-11)18-17(12-5-3-2-4-6-12)14-10-13(20)7-8-15(14)21-19(18)23/h2-10H,1H3,(H,21,23)

> <INCHI_KEY>
InChIKey=QINNOQKHPLWGBK-UHFFFAOYSA-N

> <SMILES>
CC1=NOC(=C1)C1=C(C2=CC=CC=C2)C2=C(NC1=O)C=CC(Cl)=C2

> <JCHEM_ACCEPTOR_COUNT>
2

> <JCHEM_DONOR_COUNT>
1

> <JCHEM_ACIDIC_PKA>
12.77

> <JCHEM_BASIC_PKA>
0.55

> <JCHEM_PHYSIOLOGICAL_CHARGE>
0

> <ALOGPS_LOGP>
4.58

> <JCHEM_LOGP>
3.72

> <ALOGPS_LOGS>
-4.1

> <JCHEM_POLARIZABILITY>
34.34

> <JCHEM_POLAR_SURFACE_AREA>
55.13

> <JCHEM_REFRACTIVITY>
104

> <JCHEM_ROTATABLE_BOND_COUNT>
2

> <ALOGPS_SOLUBILITY>
2.91e-02 g/l __ 

$$$$
