9CA
  Mrv0541 02241213202D          

 13 15  0  0  0  0            999 V2000
    0.6674    0.5880    0.0000 C   0  0  0  0  0  0  0  0  0  0  0  0
    1.4744    0.7595    0.0000 C   0  0  0  0  0  0  0  0  0  0  0  0
    2.0264    0.1464    0.0000 C   0  0  0  0  0  0  0  0  0  0  0  0
    1.7715   -0.6382    0.0000 C   0  0  0  0  0  0  0  0  0  0  0  0
    0.9645   -0.8097    0.0000 C   0  0  0  0  0  0  0  0  0  0  0  0
    0.4125   -0.1967    0.0000 C   0  0  0  0  0  0  0  0  0  0  0  0
   -0.4125   -0.1967    0.0000 C   0  0  0  0  0  0  0  0  0  0  0  0
   -0.9645   -0.8097    0.0000 C   0  0  0  0  0  0  0  0  0  0  0  0
   -1.7715   -0.6382    0.0000 C   0  0  0  0  0  0  0  0  0  0  0  0
   -2.0264    0.1464    0.0000 C   0  0  0  0  0  0  0  0  0  0  0  0
   -1.4744    0.7595    0.0000 C   0  0  0  0  0  0  0  0  0  0  0  0
   -0.6674    0.5880    0.0000 C   0  0  0  0  0  0  0  0  0  0  0  0
    0.0000    1.0729    0.0000 N   0  0  0  0  0  0  0  0  0  0  0  0
  1  2  2  0  0  0  0
  1  6  1  0  0  0  0
  1 13  1  0  0  0  0
  2  3  1  0  0  0  0
  3  4  2  0  0  0  0
  4  5  1  0  0  0  0
  5  6  2  0  0  0  0
  6  7  1  0  0  0  0
  7  8  2  0  0  0  0
  7 12  1  0  0  0  0
  8  9  1  0  0  0  0
  9 10  2  0  0  0  0
 10 11  1  0  0  0  0
 11 12  2  0  0  0  0
 12 13  1  0  0  0  0
M  END
> <DRUGBANK_ID>
DB07301

> <DRUG_GROUPS>
experimental

> <GENERIC_NAME>
9H-CARBAZOLE

> <CHEMICAL_FORMULA>
C12H9N

> <MOLECULAR_WEIGHT>
167.2066

> <EXACT_MASS>
167.073499293

> <IUPAC_NAME>
9H-carbazole

> <IUPAC_TRADITIONAL_NAME>
carbazole

> <INCHI_IDENTIFIER>
InChI=1S/C12H9N/c1-3-7-11-9(5-1)10-6-2-4-8-12(10)13-11/h1-8,13H

> <INCHI_KEY>
InChIKey=UJOBWOGCFQCDNV-UHFFFAOYSA-N

> <SMILES>
N1C2=CC=CC=C2C2=CC=CC=C12

> <JCHEM_ACCEPTOR_COUNT>
0

> <JCHEM_DONOR_COUNT>
1

> <JCHEM_ACIDIC_PKA>
14.97

> <JCHEM_PHYSIOLOGICAL_CHARGE>
0

> <ALOGPS_LOGP>
3.69

> <JCHEM_LOGP>
3.09

> <ALOGPS_LOGS>
-3.4

> <JCHEM_POLARIZABILITY>
18.82

> <JCHEM_POLAR_SURFACE_AREA>
15.79

> <JCHEM_REFRACTIVITY>
53.47

> <JCHEM_ROTATABLE_BOND_COUNT>
0

> <ALOGPS_SOLUBILITY>
6.69e-02 g/l __ 

$$$$
