AD7
  Mrv0541 02241213222D          

 38 39  0  0  0  0            999 V2000
    4.9880   -0.1407    0.0000 C   0  0  0  0  0  0  0  0  0  0  0  0
    4.2735   -0.5532    0.0000 C   0  0  0  0  0  0  0  0  0  0  0  0
    3.5590   -0.1407    0.0000 C   0  0  0  0  0  0  0  0  0  0  0  0
    2.8446   -0.5532    0.0000 C   0  0  0  0  0  0  0  0  0  0  0  0
    2.1301   -0.1407    0.0000 C   0  0  0  0  0  0  0  0  0  0  0  0
    1.4156   -0.5532    0.0000 C   0  0  0  0  0  0  0  0  0  0  0  0
    0.7012   -0.1407    0.0000 O   0  0  0  0  0  0  0  0  0  0  0  0
   -0.0133   -0.5532    0.0000 C   0  0  2  0  0  0  0  0  0  0  0  0
   -0.0133   -1.3782    0.0000 O   0  0  0  0  0  0  0  0  0  0  0  0
   -0.7278   -1.7907    0.0000 C   0  0  2  0  0  0  0  0  0  0  0  0
   -0.7278   -2.6157    0.0000 C   0  0  0  0  0  0  0  0  0  0  0  0
   -1.4423   -3.0282    0.0000 O   0  0  0  0  0  0  0  0  0  0  0  0
   -1.4423   -1.3782    0.0000 C   0  0  2  0  0  0  0  0  0  0  0  0
   -2.1567   -1.7907    0.0000 O   0  0  0  0  0  0  0  0  0  0  0  0
   -1.4423   -0.5532    0.0000 C   0  0  2  0  0  0  0  0  0  0  0  0
   -2.1567   -0.1407    0.0000 N   0  0  0  0  0  0  0  0  0  0  0  0
   -0.7278   -0.1407    0.0000 C   0  0  1  0  0  0  0  0  0  0  0  0
   -0.7278    0.6843    0.0000 O   0  0  0  0  0  0  0  0  0  0  0  0
   -1.4423    1.0968    0.0000 C   0  0  1  0  0  0  0  0  0  0  0  0
   -2.1567    0.6843    0.0000 C   0  0  0  0  0  0  0  0  0  0  0  0
   -1.4423    1.9218    0.0000 O   0  0  0  0  0  0  0  0  0  0  0  0
   -2.1567    2.3343    0.0000 C   0  0  1  0  0  0  0  0  0  0  0  0
   -2.1567    3.1593    0.0000 C   0  0  0  0  0  0  0  0  0  0  0  0
   -2.8712    1.9218    0.0000 C   0  0  1  0  0  0  0  0  0  0  0  0
   -3.5857    2.3343    0.0000 O   0  0  0  0  0  0  0  0  0  0  0  0
   -2.8712    1.0968    0.0000 C   0  0  1  0  0  0  0  0  0  0  0  0
   -3.5857    0.6843    0.0000 O   0  0  0  0  0  0  0  0  0  0  0  0
    5.7024   -0.5532    0.0000 C   0  0  0  0  0  0  0  0  0  0  0  0
    0.4924   -0.8452    0.0000 H   0  0  0  0  0  0  0  0  0  0  0  0
   -0.2221   -2.0827    0.0000 H   0  0  0  0  0  0  0  0  0  0  0  0
   -1.4423   -1.9622    0.0000 H   0  0  0  0  0  0  0  0  0  0  0  0
   -1.9480   -0.8452    0.0000 H   0  0  0  0  0  0  0  0  0  0  0  0
   -0.2221    0.1512    0.0000 H   0  0  0  0  0  0  0  0  0  0  0  0
   -1.4423    0.5128    0.0000 H   0  0  0  0  0  0  0  0  0  0  0  0
   -1.6510    2.6262    0.0000 H   0  0  0  0  0  0  0  0  0  0  0  0
   -2.8712    2.5057    0.0000 H   0  0  0  0  0  0  0  0  0  0  0  0
   -2.8712    0.5128    0.0000 H   0  0  0  0  0  0  0  0  0  0  0  0
    6.4169   -0.1407    0.0000 C   0  0  0  0  0  0  0  0  0  0  0  0
  1  2  1  0  0  0  0
  1 28  1  0  0  0  0
  2  3  1  0  0  0  0
  3  4  1  0  0  0  0
  4  5  1  0  0  0  0
  5  6  1  0  0  0  0
  6  7  1  0  0  0  0
  8  7  1  6  0  0  0
  8  9  1  0  0  0  0
  8 17  1  0  0  0  0
  8 29  1  1  0  0  0
  9 10  1  0  0  0  0
 10 11  1  6  0  0  0
 10 13  1  0  0  0  0
 10 30  1  1  0  0  0
 11 12  1  0  0  0  0
 13 14  1  6  0  0  0
 13 15  1  0  0  0  0
 13 31  1  1  0  0  0
 15 16  1  6  0  0  0
 15 17  1  0  0  0  0
 15 32  1  1  0  0  0
 17 18  1  1  0  0  0
 17 33  1  6  0  0  0
 19 18  1  1  0  0  0
 19 20  1  0  0  0  0
 19 21  1  0  0  0  0
 19 34  1  6  0  0  0
 20 26  1  0  0  0  0
 21 22  1  0  0  0  0
 22 23  1  6  0  0  0
 22 24  1  0  0  0  0
 22 35  1  1  0  0  0
 24 25  1  6  0  0  0
 24 26  1  0  0  0  0
 24 36  1  1  0  0  0
 26 27  1  6  0  0  0
 26 37  1  1  0  0  0
 28 38  1  0  0  0  0
M  END
> <DRUGBANK_ID>
DB07341

> <DRUG_GROUPS>
experimental

> <GENERIC_NAME>
octyl 3-amino-3-deoxy-2-O-(2,6-dideoxy-alpha-L-lyxo-hexopyranosyl)-beta-D-galactopyranoside

> <CHEMICAL_FORMULA>
C20H39NO8

> <MOLECULAR_WEIGHT>
421.5256

> <EXACT_MASS>
421.267567229

> <IUPAC_NAME>
(2S,3S,4S,6S)-6-{[(2R,3R,4S,5R,6R)-4-amino-5-hydroxy-6-(hydroxymethyl)-2-(octyloxy)oxan-3-yl]oxy}-2-methyloxane-3,4-diol

> <IUPAC_TRADITIONAL_NAME>
(2S,3S,4S,6S)-6-{[(2R,3R,4S,5R,6R)-4-amino-5-hydroxy-6-(hydroxymethyl)-2-(octyloxy)oxan-3-yl]oxy}-2-methyloxane-3,4-diol

> <INCHI_IDENTIFIER>
InChI=1S/C20H39NO8/c1-3-4-5-6-7-8-9-26-20-19(16(21)18(25)14(11-22)28-20)29-15-10-13(23)17(24)12(2)27-15/h12-20,22-25H,3-11,21H2,1-2H3/t12-,13-,14+,15-,16-,17+,18-,19+,20+/m0/s1

> <INCHI_KEY>
InChIKey=GHTLMVRROQXELT-HTYYFBMYSA-N

> <SMILES>
[H][C@]1(O)C[C@]([H])(O[C@]2([H])[C@@]([H])(N)[C@@]([H])(O)[C@@]([H])(CO)O[C@@]2([H])OCCCCCCCC)O[C@@]([H])(C)[C@@]1([H])O

> <JCHEM_ACCEPTOR_COUNT>
9

> <JCHEM_DONOR_COUNT>
5

> <JCHEM_ACIDIC_PKA>
12.96

> <JCHEM_BASIC_PKA>
8.7

> <JCHEM_PHYSIOLOGICAL_CHARGE>
1

> <ALOGPS_LOGP>
0.26

> <JCHEM_LOGP>
0.88

> <ALOGPS_LOGS>
-2

> <JCHEM_POLARIZABILITY>
46.71

> <JCHEM_POLAR_SURFACE_AREA>
143.86

> <JCHEM_REFRACTIVITY>
103.97

> <JCHEM_ROTATABLE_BOND_COUNT>
11

> <ALOGPS_SOLUBILITY>
4.43e+00 g/l __ 

$$$$
