HAB
  Mrv0541 02241213422D          

 18 19  0  0  0  0            999 V2000
    0.2106   -1.1055    0.0000 C   0  0  0  0  0  0  0  0  0  0  0  0
    0.9250   -1.5180    0.0000 C   0  0  0  0  0  0  0  0  0  0  0  0
    0.9250   -2.3430    0.0000 C   0  0  0  0  0  0  0  0  0  0  0  0
    0.2106   -2.7555    0.0000 C   0  0  0  0  0  0  0  0  0  0  0  0
   -0.5039   -2.3430    0.0000 C   0  0  0  0  0  0  0  0  0  0  0  0
   -0.5039   -1.5180    0.0000 C   0  0  0  0  0  0  0  0  0  0  0  0
   -0.5039    0.9570    0.0000 C   0  0  0  0  0  0  0  0  0  0  0  0
   -1.2184    1.3695    0.0000 C   0  0  0  0  0  0  0  0  0  0  0  0
   -1.2184    2.1945    0.0000 C   0  0  0  0  0  0  0  0  0  0  0  0
   -0.5039    2.6070    0.0000 C   0  0  0  0  0  0  0  0  0  0  0  0
    0.2106    2.1945    0.0000 C   0  0  0  0  0  0  0  0  0  0  0  0
    0.2106    1.3695    0.0000 C   0  0  0  0  0  0  0  0  0  0  0  0
    1.6395   -1.1055    0.0000 C   0  0  0  0  0  0  0  0  0  0  0  0
    0.2106   -0.2805    0.0000 N   0  0  0  0  0  0  0  0  0  0  0  0
   -0.5039    0.1320    0.0000 N   0  0  0  0  0  0  0  0  0  0  0  0
    2.3540   -1.5180    0.0000 O   0  0  0  0  0  0  0  0  0  0  0  0
    1.6395   -0.2805    0.0000 O   0  0  0  0  0  0  0  0  0  0  0  0
   -0.5039    3.4320    0.0000 O   0  0  0  0  0  0  0  0  0  0  0  0
  1  2  1  0  0  0  0
  1  6  2  0  0  0  0
  1 14  1  0  0  0  0
  2  3  2  0  0  0  0
  2 13  1  0  0  0  0
  3  4  1  0  0  0  0
  4  5  2  0  0  0  0
  5  6  1  0  0  0  0
  7  8  1  0  0  0  0
  7 12  2  0  0  0  0
  7 15  1  0  0  0  0
  8  9  2  0  0  0  0
  9 10  1  0  0  0  0
 10 11  2  0  0  0  0
 10 18  1  0  0  0  0
 11 12  1  0  0  0  0
 13 16  2  0  0  0  0
 13 17  1  0  0  0  0
 14 15  2  0  0  0  0
M  END
> <DRUGBANK_ID>
DB07880

> <DRUG_GROUPS>
experimental

> <GENERIC_NAME>
2-((4'-HYDROXYPHENYL)-AZO)BENZOIC ACID

> <CHEMICAL_FORMULA>
C13H10N2O3

> <MOLECULAR_WEIGHT>
242.2301

> <EXACT_MASS>
242.069142196

> <IUPAC_NAME>
2-[(E)-2-(4-hydroxyphenyl)diazen-1-yl]benzoic acid

> <IUPAC_TRADITIONAL_NAME>
2-[(E)-2-(4-hydroxyphenyl)diazen-1-yl]benzoic acid

> <INCHI_IDENTIFIER>
InChI=1S/C13H10N2O3/c16-10-7-5-9(6-8-10)14-15-12-4-2-1-3-11(12)13(17)18/h1-8,16H,(H,17,18)/b15-14+

> <INCHI_KEY>
InChIKey=DWQOTEPNRWVUDA-CCEZHUSRSA-N

> <SMILES>
OC(=O)C1=CC=CC=C1\N=N\C1=CC=C(O)C=C1

> <JCHEM_ACCEPTOR_COUNT>
5

> <JCHEM_DONOR_COUNT>
2

> <JCHEM_ACIDIC_PKA>
3.36

> <JCHEM_BASIC_PKA>
0.25

> <JCHEM_PHYSIOLOGICAL_CHARGE>
-1

> <ALOGPS_LOGP>
3.67

> <JCHEM_LOGP>
3.73

> <ALOGPS_LOGS>
-3.5

> <JCHEM_POLARIZABILITY>
24.4

> <JCHEM_POLAR_SURFACE_AREA>
82.25

> <JCHEM_REFRACTIVITY>
69.61

> <JCHEM_ROTATABLE_BOND_COUNT>
3

> <ALOGPS_SOLUBILITY>
8.41e-02 g/l __ 

$$$$
