EMO
  Mrv0541 02241213362D          

 20 22  0  0  0  0            999 V2000
   -1.7000   -0.8717    0.0000 C   0  0  0  0  0  0  0  0  0  0  0  0
   -1.7000   -1.6967    0.0000 O   0  0  0  0  0  0  0  0  0  0  0  0
   -2.4144   -0.4592    0.0000 C   0  0  0  0  0  0  0  0  0  0  0  0
   -2.4144    0.3658    0.0000 C   0  0  0  0  0  0  0  0  0  0  0  0
   -3.1289    0.7783    0.0000 O   0  0  0  0  0  0  0  0  0  0  0  0
   -1.7000    0.7783    0.0000 C   0  0  0  0  0  0  0  0  0  0  0  0
   -0.9855    0.3658    0.0000 C   0  0  0  0  0  0  0  0  0  0  0  0
   -0.2710    0.7783    0.0000 C   0  0  0  0  0  0  0  0  0  0  0  0
   -0.2710    1.6033    0.0000 O   0  0  0  0  0  0  0  0  0  0  0  0
    0.4435    0.3658    0.0000 C   0  0  0  0  0  0  0  0  0  0  0  0
    1.1579    0.7783    0.0000 C   0  0  0  0  0  0  0  0  0  0  0  0
    1.8724    0.3658    0.0000 C   0  0  0  0  0  0  0  0  0  0  0  0
    2.5869    0.7783    0.0000 C   0  0  0  0  0  0  0  0  0  0  0  0
    1.8724   -0.4592    0.0000 C   0  0  0  0  0  0  0  0  0  0  0  0
    1.1579   -0.8717    0.0000 C   0  0  0  0  0  0  0  0  0  0  0  0
    1.1579   -1.6967    0.0000 O   0  0  0  0  0  0  0  0  0  0  0  0
    0.4435   -0.4592    0.0000 C   0  0  0  0  0  0  0  0  0  0  0  0
   -0.2710   -0.8717    0.0000 C   0  0  0  0  0  0  0  0  0  0  0  0
   -0.2710   -1.6967    0.0000 O   0  0  0  0  0  0  0  0  0  0  0  0
   -0.9855   -0.4592    0.0000 C   0  0  0  0  0  0  0  0  0  0  0  0
  1  2  1  0  0  0  0
  1  3  2  0  0  0  0
  1 20  1  0  0  0  0
  3  4  1  0  0  0  0
  4  5  1  0  0  0  0
  4  6  2  0  0  0  0
  6  7  1  0  0  0  0
  7  8  1  0  0  0  0
  7 20  2  0  0  0  0
  8  9  2  0  0  0  0
  8 10  1  0  0  0  0
 10 11  2  0  0  0  0
 10 17  1  0  0  0  0
 11 12  1  0  0  0  0
 12 13  1  0  0  0  0
 12 14  2  0  0  0  0
 14 15  1  0  0  0  0
 15 16  1  0  0  0  0
 15 17  2  0  0  0  0
 17 18  1  0  0  0  0
 18 19  2  0  0  0  0
 18 20  1  0  0  0  0
M  END
> <DRUGBANK_ID>
DB07715

> <DRUG_GROUPS>
experimental

> <GENERIC_NAME>
3-METHYL-1,6,8-TRIHYDROXYANTHRAQUINONE

> <CHEMICAL_FORMULA>
C15H10O5

> <MOLECULAR_WEIGHT>
270.2369

> <EXACT_MASS>
270.05282343

> <IUPAC_NAME>
1,3,8-trihydroxy-6-methyl-9,10-dihydroanthracene-9,10-dione

> <IUPAC_TRADITIONAL_NAME>
emodin

> <INCHI_IDENTIFIER>
InChI=1S/C15H10O5/c1-6-2-8-12(10(17)3-6)15(20)13-9(14(8)19)4-7(16)5-11(13)18/h2-5,16-18H,1H3

> <INCHI_KEY>
InChIKey=RHMXXJGYXNZAPX-UHFFFAOYSA-N

> <SMILES>
CC1=CC(O)=C2C(=O)C3=C(C=C(O)C=C3O)C(=O)C2=C1

> <JCHEM_ACCEPTOR_COUNT>
5

> <JCHEM_DONOR_COUNT>
3

> <JCHEM_ACIDIC_PKA>
7.39

> <JCHEM_BASIC_PKA>
-4.2

> <JCHEM_PHYSIOLOGICAL_CHARGE>
0

> <ALOGPS_LOGP>
2.66

> <JCHEM_LOGP>
3.82

> <ALOGPS_LOGS>
-3.1

> <JCHEM_POLARIZABILITY>
26.57

> <JCHEM_POLAR_SURFACE_AREA>
94.83

> <JCHEM_REFRACTIVITY>
72.13

> <JCHEM_ROTATABLE_BOND_COUNT>
0

> <ALOGPS_SOLUBILITY>
2.22e-01 g/l __ 

$$$$
