HEF
  Mrv0541 02241213432D          

 21 22  0  0  0  0            999 V2000
    0.2806   -0.6902    0.0000 N   0  0  0  0  0  0  0  0  0  0  0  0
    0.2806   -1.5152    0.0000 C   0  0  0  0  0  0  0  0  0  0  0  0
    0.9951   -1.9277    0.0000 O   0  0  0  0  0  0  0  0  0  0  0  0
   -0.4339   -1.9277    0.0000 N   0  0  0  0  0  0  0  0  0  0  0  0
   -1.1483   -1.5152    0.0000 C   0  0  0  0  0  0  0  0  0  0  0  0
   -1.8628   -1.9277    0.0000 O   0  0  0  0  0  0  0  0  0  0  0  0
   -1.1483   -0.6902    0.0000 C   0  0  0  0  0  0  0  0  0  0  0  0
   -0.4339   -0.2777    0.0000 C   0  0  0  0  0  0  0  0  0  0  0  0
   -1.8628   -0.2777    0.0000 C   0  0  0  0  0  0  0  0  0  0  0  0
    0.9951   -0.2777    0.0000 C   0  0  0  0  0  0  0  0  0  0  0  0
    1.7095   -0.6902    0.0000 O   0  0  0  0  0  0  0  0  0  0  0  0
    2.4240   -0.2777    0.0000 C   0  0  0  0  0  0  0  0  0  0  0  0
    3.1385   -0.6902    0.0000 C   0  0  0  0  0  0  0  0  0  0  0  0
    3.8530   -0.2777    0.0000 O   0  0  0  0  0  0  0  0  0  0  0  0
   -0.4339    0.5473    0.0000 S   0  0  0  0  0  0  0  0  0  0  0  0
   -1.1483    0.9598    0.0000 C   0  0  0  0  0  0  0  0  0  0  0  0
   -1.8628    0.5473    0.0000 C   0  0  0  0  0  0  0  0  0  0  0  0
   -2.5773    0.9598    0.0000 C   0  0  0  0  0  0  0  0  0  0  0  0
   -2.5773    1.7848    0.0000 C   0  0  0  0  0  0  0  0  0  0  0  0
   -1.8628    2.1973    0.0000 C   0  0  0  0  0  0  0  0  0  0  0  0
   -1.1483    1.7848    0.0000 C   0  0  0  0  0  0  0  0  0  0  0  0
  1  2  1  0  0  0  0
  1  8  1  0  0  0  0
  1 10  1  0  0  0  0
  2  3  2  0  0  0  0
  2  4  1  0  0  0  0
  4  5  1  0  0  0  0
  5  6  2  0  0  0  0
  5  7  1  0  0  0  0
  7  8  2  0  0  0  0
  7  9  1  0  0  0  0
  8 15  1  0  0  0  0
 10 11  1  0  0  0  0
 11 12  1  0  0  0  0
 12 13  1  0  0  0  0
 13 14  1  0  0  0  0
 15 16  1  0  0  0  0
 16 17  2  0  0  0  0
 16 21  1  0  0  0  0
 17 18  1  0  0  0  0
 18 19  2  0  0  0  0
 19 20  1  0  0  0  0
 20 21  2  0  0  0  0
M  END
> <DRUGBANK_ID>
DB07892

> <DRUG_GROUPS>
experimental

> <GENERIC_NAME>
1-(2-HYDROXYETHYLOXYMETHYL)-6-PHENYL THIOTHYMINE

> <CHEMICAL_FORMULA>
C14H16N2O4S

> <MOLECULAR_WEIGHT>
308.353

> <EXACT_MASS>
308.0830777

> <IUPAC_NAME>
1-[(2-hydroxyethoxy)methyl]-5-methyl-6-(phenylsulfanyl)-1,2,3,4-tetrahydropyrimidine-2,4-dione

> <IUPAC_TRADITIONAL_NAME>
1-[(2-hydroxyethoxy)methyl]-5-methyl-6-(phenylsulfanyl)-3H-pyrimidine-2,4-dione

> <INCHI_IDENTIFIER>
InChI=1S/C14H16N2O4S/c1-10-12(18)15-14(19)16(9-20-8-7-17)13(10)21-11-5-3-2-4-6-11/h2-6,17H,7-9H2,1H3,(H,15,18,19)

> <INCHI_KEY>
InChIKey=HDMHBHNRWDNNCD-UHFFFAOYSA-N

> <SMILES>
CC1=C(SC2=CC=CC=C2)N(COCCO)C(=O)NC1=O

> <JCHEM_ACCEPTOR_COUNT>
4

> <JCHEM_DONOR_COUNT>
2

> <JCHEM_ACIDIC_PKA>
9.89

> <JCHEM_BASIC_PKA>
-2.7

> <JCHEM_PHYSIOLOGICAL_CHARGE>
0

> <ALOGPS_LOGP>
1.09

> <JCHEM_LOGP>
1.55

> <ALOGPS_LOGS>
-2.8

> <JCHEM_POLARIZABILITY>
30.59

> <JCHEM_POLAR_SURFACE_AREA>
78.87

> <JCHEM_REFRACTIVITY>
89.35

> <JCHEM_ROTATABLE_BOND_COUNT>
6

> <ALOGPS_SOLUBILITY>
4.87e-01 g/l __ 

$$$$
