373
  Mrv0541 02241213092D          

 29 33  0  0  0  0            999 V2000
   -4.5134   -1.4249    0.0000 C   0  0  0  0  0  0  0  0  0  0  0  0
   -4.9259   -2.1394    0.0000 C   0  0  0  0  0  0  0  0  0  0  0  0
   -5.7509   -2.1394    0.0000 C   0  0  0  0  0  0  0  0  0  0  0  0
   -6.1634   -1.4249    0.0000 C   0  0  0  0  0  0  0  0  0  0  0  0
   -5.7509   -0.7105    0.0000 C   0  0  0  0  0  0  0  0  0  0  0  0
   -4.9259   -0.7105    0.0000 C   0  0  0  0  0  0  0  0  0  0  0  0
   -4.5134    0.0040    0.0000 N   0  0  0  0  0  0  0  0  0  0  0  0
   -3.6884    0.0040    0.0000 C   0  0  0  0  0  0  0  0  0  0  0  0
   -3.2759   -0.7105    0.0000 C   0  0  0  0  0  0  0  0  0  0  0  0
   -3.6884   -1.4249    0.0000 C   0  0  0  0  0  0  0  0  0  0  0  0
   -2.4509   -0.7105    0.0000 C   0  0  0  0  0  0  0  0  0  0  0  0
   -1.9660   -0.0430    0.0000 N   0  0  0  0  0  0  0  0  0  0  0  0
   -1.1814   -0.2980    0.0000 C   0  0  0  0  0  0  0  0  0  0  0  0
   -1.1814   -1.1230    0.0000 C   0  0  0  0  0  0  0  0  0  0  0  0
   -1.9660   -1.3779    0.0000 C   0  0  0  0  0  0  0  0  0  0  0  0
   -0.4669    0.1145    0.0000 C   0  0  0  0  0  0  0  0  0  0  0  0
    0.2476   -0.2980    0.0000 C   0  0  0  0  0  0  0  0  0  0  0  0
    0.2476   -1.1230    0.0000 C   0  0  0  0  0  0  0  0  0  0  0  0
   -0.4669   -1.5355    0.0000 C   0  0  0  0  0  0  0  0  0  0  0  0
    0.9620   -1.5355    0.0000 C   0  0  0  0  0  0  0  0  0  0  0  0
    0.9620   -2.3605    0.0000 N   0  0  0  0  0  0  0  0  0  0  0  0
    1.6765   -2.7730    0.0000 C   0  0  0  0  0  0  0  0  0  0  0  0
    1.6765   -3.5980    0.0000 C   0  0  0  0  0  0  0  0  0  0  0  0
    0.9620   -4.0105    0.0000 C   0  0  0  0  0  0  0  0  0  0  0  0
    0.2476   -3.5980    0.0000 C   0  0  0  0  0  0  0  0  0  0  0  0
    0.2476   -2.7730    0.0000 C   0  0  0  0  0  0  0  0  0  0  0  0
    0.9620   -4.8355    0.0000 C   0  0  0  0  0  0  0  0  0  0  0  0
    1.6765   -5.2480    0.0000 N   0  0  0  0  0  0  0  0  0  0  0  0
   -3.2759    0.7185    0.0000 O   0  0  0  0  0  0  0  0  0  0  0  0
  1  6  1  0  0  0  0
  1 10  1  0  0  0  0
  1  2  2  0  0  0  0
  2  3  1  0  0  0  0
  3  4  2  0  0  0  0
  4  5  1  0  0  0  0
  5  6  2  0  0  0  0
  6  7  1  0  0  0  0
  7  8  1  0  0  0  0
  8 29  2  0  0  0  0
  8  9  1  0  0  0  0
  9 11  1  0  0  0  0
  9 10  2  0  0  0  0
 11 12  1  0  0  0  0
 11 15  2  0  0  0  0
 12 13  1  0  0  0  0
 13 16  1  0  0  0  0
 13 14  2  0  0  0  0
 14 19  1  0  0  0  0
 14 15  1  0  0  0  0
 16 17  2  0  0  0  0
 17 18  1  0  0  0  0
 18 20  1  0  0  0  0
 18 19  2  0  0  0  0
 20 21  1  0  0  0  0
 21 22  1  0  0  0  0
 21 26  1  0  0  0  0
 22 23  1  0  0  0  0
 23 24  1  0  0  0  0
 24 27  1  0  0  0  0
 24 25  1  0  0  0  0
 25 26  1  0  0  0  0
 27 28  1  0  0  0  0
M  END
> <DRUGBANK_ID>
DB07025

> <DRUG_GROUPS>
experimental

> <GENERIC_NAME>
3-(5-{[4-(AMINOMETHYL)PIPERIDIN-1-YL]METHYL}-1H-INDOL-2-YL)QUINOLIN-2(1H)-ONE

> <CHEMICAL_FORMULA>
C24H26N4O

> <MOLECULAR_WEIGHT>
386.4894

> <EXACT_MASS>
386.210661474

> <IUPAC_NAME>
3-(5-{[4-(aminomethyl)piperidin-1-yl]methyl}-1H-indol-2-yl)-1,2-dihydroquinolin-2-one

> <IUPAC_TRADITIONAL_NAME>
3-(5-{[4-(aminomethyl)piperidin-1-yl]methyl}-1H-indol-2-yl)-1H-quinolin-2-one

> <INCHI_IDENTIFIER>
InChI=1S/C24H26N4O/c25-14-16-7-9-28(10-8-16)15-17-5-6-22-19(11-17)13-23(26-22)20-12-18-3-1-2-4-21(18)27-24(20)29/h1-6,11-13,16,26H,7-10,14-15,25H2,(H,27,29)

> <INCHI_KEY>
InChIKey=KBIHHEGEALBUMT-UHFFFAOYSA-N

> <SMILES>
NCC1CCN(CC2=CC3=C(NC(=C3)C3=CC4=CC=CC=C4NC3=O)C=C2)CC1

> <JCHEM_ACCEPTOR_COUNT>
3

> <JCHEM_DONOR_COUNT>
3

> <JCHEM_ACIDIC_PKA>
11.76

> <JCHEM_BASIC_PKA>
10.27

> <JCHEM_PHYSIOLOGICAL_CHARGE>
2

> <ALOGPS_LOGP>
3.41

> <JCHEM_LOGP>
2.77

> <ALOGPS_LOGS>
-4.7

> <JCHEM_POLARIZABILITY>
45.42

> <JCHEM_POLAR_SURFACE_AREA>
74.15

> <JCHEM_REFRACTIVITY>
119.44

> <JCHEM_ROTATABLE_BOND_COUNT>
4

> <ALOGPS_SOLUBILITY>
7.09e-03 g/l __ 

$$$$
