877
  Mrv0541 02241213192D          

 27 28  0  0  0  0            999 V2000
   -0.9094    3.2070    0.0000 C    0  0  0  0  0  0  0  0  0  0  0  0
   -0.1949    2.7945    0.0000 C    0  0  0  0  0  0  0  0  0  0  0  0
   -0.1949    1.9695    0.0000 C    0  0  0  0  0  0  0  0  0  0  0  0
   -0.9094    1.5570    0.0000 C    0  0  0  0  0  0  0  0  0  0  0  0
   -1.6239    1.9695    0.0000 C    0  0  0  0  0  0  0  0  0  0  0  0
   -1.6239    2.7945    0.0000 C    0  0  0  0  0  0  0  0  0  0  0  0
    0.5195    1.5570    0.0000 C    0  0  0  0  0  0  0  0  0  0  0  0
    0.5195    0.7320    0.0000 C    0  0  0  0  0  0  0  0  0  0  0  0
    1.2340    0.3195    0.0000 N    0  0  0  0  0  0  0  0  0  0  0  0
    1.2340   -0.5055    0.0000 C    0  0  0  0  0  0  0  0  0  0  0  0
   -0.1949    0.3195    0.0000 O    0  0  0  0  0  0  0  0  0  0  0  0
    1.9485   -0.9180    0.0000 N    0  0  0  0  0  0  0  0  0  0  0  0
    1.9485   -1.7430    0.0000 C    0  0  0  0  0  0  0  0  0  0  0  0
    1.2340   -2.1555    0.0000 C    0  0  0  0  0  0  0  0  0  0  0  0
    0.5195   -1.7430    0.0000 C    0  0  0  0  0  0  0  0  0  0  0  0
    0.5195   -0.9180    0.0000 C    0  0  0  0  0  0  0  0  0  0  0  0
   -2.3384    1.5570    0.0000 O    0  0  0  0  0  0  0  0  0  0  0  0
   -3.0528    1.9695    0.0000 C    0  0  0  0  0  0  0  0  0  0  0  0
    0.5195    3.2070    0.0000 O    0  0  0  0  0  0  0  0  0  0  0  0
    1.2340    2.7945    0.0000 C    0  0  0  0  0  0  0  0  0  0  0  0
   -0.1949   -2.1555    0.0000 N    0  0  0  0  0  0  0  0  0  0  0  0
    1.2340   -2.9805    0.0000 C    0  0  0  0  0  0  0  0  0  0  0  0
    2.6629   -2.1555    0.0000 O    0  0  0  0  0  0  0  0  0  0  0  0
    2.6629   -2.9805    0.0000 C    0  0  0  0  0  0  0  0  0  0  0  0
    3.3774   -3.3930    0.0000 C    0  0  0  0  0  0  0  0  0  0  0  0
   -2.3384    3.2070    0.0000 Br   0  0  0  0  0  0  0  0  0  0  0  0
    1.2340   -3.8055    0.0000 N    0  0  0  0  0  0  0  0  0  0  0  0
  1  2  2  0  0  0  0
  1  6  1  0  0  0  0
  2  3  1  0  0  0  0
  2 19  1  0  0  0  0
  3  4  2  0  0  0  0
  3  7  1  0  0  0  0
  4  5  1  0  0  0  0
  5  6  2  0  0  0  0
  5 17  1  0  0  0  0
  6 26  1  0  0  0  0
  7  8  1  0  0  0  0
  8  9  1  0  0  0  0
  8 11  2  0  0  0  0
  9 10  1  0  0  0  0
 10 12  1  0  0  0  0
 10 16  2  0  0  0  0
 12 13  2  0  0  0  0
 13 14  1  0  0  0  0
 13 23  1  0  0  0  0
 14 15  2  0  0  0  0
 14 22  1  0  0  0  0
 15 16  1  0  0  0  0
 15 21  1  0  0  0  0
 17 18  1  0  0  0  0
 19 20  1  0  0  0  0
 22 27  3  0  0  0  0
 23 24  1  0  0  0  0
 24 25  1  0  0  0  0
M  END
> <DRUGBANK_ID>
DB07272

> <DRUG_GROUPS>
experimental

> <GENERIC_NAME>
N-(4-AMINO-5-CYANO-6-ETHOXYPYRIDIN-2-YL)-2-(4-BROMO-2,5-DIMETHOXYPHENYL)ACETAMIDE

> <CHEMICAL_FORMULA>
C18H19BrN4O4

> <MOLECULAR_WEIGHT>
435.272

> <EXACT_MASS>
434.058967763

> <IUPAC_NAME>
N-(4-amino-5-cyano-6-ethoxypyridin-2-yl)-2-(4-bromo-2,5-dimethoxyphenyl)acetamide

> <IUPAC_TRADITIONAL_NAME>
N-(4-amino-5-cyano-6-ethoxypyridin-2-yl)-2-(4-bromo-2,5-dimethoxyphenyl)acetamide

> <INCHI_IDENTIFIER>
InChI=1S/C18H19BrN4O4/c1-4-27-18-11(9-20)13(21)8-16(23-18)22-17(24)6-10-5-15(26-3)12(19)7-14(10)25-2/h5,7-8H,4,6H2,1-3H3,(H3,21,22,23,24)

> <INCHI_KEY>
InChIKey=GKODDLYLEKSDJL-UHFFFAOYSA-N

> <SMILES>
CCOC1=NC(NC(=O)CC2=CC(OC)=C(Br)C=C2OC)=CC(N)=C1C#N

> <JCHEM_ACCEPTOR_COUNT>
7

> <JCHEM_DONOR_COUNT>
2

> <JCHEM_ACIDIC_PKA>
11.85

> <JCHEM_BASIC_PKA>
2.41

> <JCHEM_PHYSIOLOGICAL_CHARGE>
0

> <ALOGPS_LOGP>
2.5

> <JCHEM_LOGP>
2.7

> <ALOGPS_LOGS>
-4.3

> <JCHEM_POLARIZABILITY>
39.76

> <JCHEM_POLAR_SURFACE_AREA>
119.49

> <JCHEM_REFRACTIVITY>
106.3

> <JCHEM_ROTATABLE_BOND_COUNT>
7

> <ALOGPS_SOLUBILITY>
2.00e-02 g/l __ 

$$$$
