F1G
  Mrv0541 02241213372D          

 19 20  0  0  0  0            999 V2000
   -1.4444   -2.5530    0.0000 F   0  0  0  0  0  0  0  0  0  0  0  0
   -1.6159   -1.7460    0.0000 C   0  0  0  0  0  0  0  0  0  0  0  0
   -0.8089   -1.5745    0.0000 F   0  0  0  0  0  0  0  0  0  0  0  0
   -2.4229   -1.9175    0.0000 F   0  0  0  0  0  0  0  0  0  0  0  0
   -1.7874   -0.9390    0.0000 C   0  0  0  0  0  0  0  0  0  0  0  0
   -1.2354   -0.3259    0.0000 C   0  0  0  0  0  0  0  0  0  0  0  0
   -1.6479    0.3885    0.0000 C   0  0  0  0  0  0  0  0  0  0  0  0
   -2.4549    0.2170    0.0000 N   0  0  0  0  0  0  0  0  0  0  0  0
   -3.0679    0.7690    0.0000 C   0  0  0  0  0  0  0  0  0  0  0  0
   -2.5411   -0.6035    0.0000 N   0  0  0  0  0  0  0  0  0  0  0  0
   -1.0959    1.0016    0.0000 S   0  0  0  0  0  0  0  0  0  0  0  0
   -0.4284   -0.1544    0.0000 C   0  0  0  0  0  0  0  0  0  0  0  0
   -0.3422    0.6661    0.0000 C   0  0  0  0  0  0  0  0  0  0  0  0
    0.3723    1.0786    0.0000 C   0  0  0  0  0  0  0  0  0  0  0  0
    0.3723    1.9036    0.0000 O   0  0  0  0  0  0  0  0  0  0  0  0
    1.0868    0.6661    0.0000 N   0  0  0  0  0  0  0  0  0  0  0  0
    1.8012    1.0786    0.0000 C   0  0  0  0  0  0  0  0  0  0  0  0
    2.5157    0.6661    0.0000 C   0  0  0  0  0  0  0  0  0  0  0  0
    3.2302    1.0786    0.0000 S   0  0  0  0  0  0  0  0  0  0  0  0
  1  2  1  0  0  0  0
  2  3  1  0  0  0  0
  2  4  1  0  0  0  0
  2  5  1  0  0  0  0
  5  6  1  0  0  0  0
  5 10  2  0  0  0  0
  6  7  2  0  0  0  0
  6 12  1  0  0  0  0
  7  8  1  0  0  0  0
  7 11  1  0  0  0  0
  8  9  1  0  0  0  0
  8 10  1  0  0  0  0
 11 13  1  0  0  0  0
 12 13  2  0  0  0  0
 13 14  1  0  0  0  0
 14 15  2  0  0  0  0
 14 16  1  0  0  0  0
 16 17  1  0  0  0  0
 17 18  1  0  0  0  0
 18 19  1  0  0  0  0
M  END
> <DRUGBANK_ID>
DB07733

> <DRUG_GROUPS>
experimental

> <GENERIC_NAME>
1-METHYL-3-TRIFLUOROMETHYL-1H-THIENO[2,3-C]PYRAZOLE-5-CARBOXYLIC ACID (2-MERCAPTO-ETHYL)-AMIDE

> <CHEMICAL_FORMULA>
C10H10F3N3OS2

> <MOLECULAR_WEIGHT>
309.331

> <EXACT_MASS>
309.021737952

> <IUPAC_NAME>
1-methyl-N-(2-sulfanylethyl)-3-(trifluoromethyl)-1H-thieno[2,3-c]pyrazole-5-carboxamide

> <IUPAC_TRADITIONAL_NAME>
1-methyl-N-(2-sulfanylethyl)-3-(trifluoromethyl)thieno[2,3-c]pyrazole-5-carboxamide

> <INCHI_IDENTIFIER>
InChI=1S/C10H10F3N3OS2/c1-16-9-5(7(15-16)10(11,12)13)4-6(19-9)8(17)14-2-3-18/h4,18H,2-3H2,1H3,(H,14,17)

> <INCHI_KEY>
InChIKey=HDKGQVZBBSICLG-UHFFFAOYSA-N

> <SMILES>
CN1N=C(C2=C1SC(=C2)C(=O)NCCS)C(F)(F)F

> <JCHEM_ACCEPTOR_COUNT>
2

> <JCHEM_DONOR_COUNT>
2

> <JCHEM_ACIDIC_PKA>
10.07

> <JCHEM_BASIC_PKA>
-1.3

> <JCHEM_PHYSIOLOGICAL_CHARGE>
0

> <ALOGPS_LOGP>
2.84

> <JCHEM_LOGP>
2.43

> <ALOGPS_LOGS>
-3.9

> <JCHEM_POLARIZABILITY>
27.77

> <JCHEM_POLAR_SURFACE_AREA>
46.92

> <JCHEM_REFRACTIVITY>
79.16

> <JCHEM_ROTATABLE_BOND_COUNT>
4

> <ALOGPS_SOLUBILITY>
4.21e-02 g/l __ 

$$$$
