
  Mrv0541 02261416372D          

 27 28  0  0  1  0            999 V2000
   -5.7467    5.3170    0.0000 C   0  0  0  0  0  0  0  0  0  0  0  0
   -5.0323    4.9045    0.0000 C   0  0  0  0  0  0  0  0  0  0  0  0
   -4.3178    5.3170    0.0000 C   0  0  0  0  0  0  0  0  0  0  0  0
   -3.6033    4.9045    0.0000 C   0  0  0  0  0  0  0  0  0  0  0  0
   -2.8889    5.3170    0.0000 C   0  0  0  0  0  0  0  0  0  0  0  0
   -2.1744    4.9045    0.0000 C   0  0  0  0  0  0  0  0  0  0  0  0
   -1.4599    5.3170    0.0000 C   0  0  0  0  0  0  0  0  0  0  0  0
   -0.7454    4.9045    0.0000 C   0  0  0  0  0  0  0  0  0  0  0  0
    1.5767    3.9125    0.0000 C   0  0  0  0  0  0  0  0  0  0  0  0
    1.9892    4.6270    0.0000 C   0  0  2  0  0  0  0  0  0  0  0  0
    2.7962    4.7985    0.0000 C   0  0  2  0  0  0  0  0  0  0  0  0
    3.0511    5.5831    0.0000 C   0  0  1  0  0  0  0  0  0  0  0  0
    2.4991    6.1962    0.0000 C   0  0  2  0  0  0  0  0  0  0  0  0
    1.6921    6.0247    0.0000 C   0  0  1  0  0  0  0  0  0  0  0  0
    0.6835    4.9045    0.0000 C   0  0  0  0  0  0  0  0  0  0  0  0
   -0.0310    5.3170    0.0000 N   0  0  0  0  0  0  0  0  0  0  0  0
    1.4372    5.2401    0.0000 N   0  0  0  0  0  0  0  0  0  0  0  0
    3.3482    4.1854    0.0000 O   0  0  0  0  0  0  0  0  0  0  0  0
    3.8581    5.7547    0.0000 O   0  0  0  0  0  0  0  0  0  0  0  0
    2.7540    6.9809    0.0000 O   0  0  0  0  0  0  0  0  0  0  0  0
    1.1401    6.6378    0.0000 O   0  0  0  0  0  0  0  0  0  0  0  0
    0.7697    4.0841    0.0000 S   0  0  0  0  0  0  0  0  0  0  0  0
    2.6732    4.1657    0.0000 H   0  0  0  0  0  0  0  0  0  0  0  0
    3.1052    4.0336    0.0000 H   0  0  0  0  0  0  0  0  0  0  0  0
    3.6032    4.9701    0.0000 H   0  0  0  0  0  0  0  0  0  0  0  0
    3.3061    6.3678    0.0000 H   0  0  0  0  0  0  0  0  0  0  0  0
    1.9471    6.8093    0.0000 H   0  0  0  0  0  0  0  0  0  0  0  0
  2  1  1  0  0  0  0
  3  2  1  0  0  0  0
  4  3  1  0  0  0  0
  5  4  1  0  0  0  0
  6  5  1  0  0  0  0
  7  6  1  0  0  0  0
  8  7  1  0  0  0  0
 10  9  1  0  0  0  0
 11 10  1  0  0  0  0
 12 11  1  0  0  0  0
 13 12  1  0  0  0  0
 14 13  1  0  0  0  0
 16  8  1  0  0  0  0
 16 15  2  0  0  0  0
 17 10  1  0  0  0  0
 17 14  1  0  0  0  0
 17 15  1  0  0  0  0
 11 18  1  6  0  0  0
 12 19  1  1  0  0  0
 13 20  1  6  0  0  0
 14 21  1  1  0  0  0
 22  9  1  0  0  0  0
 22 15  1  0  0  0  0
 10 23  1  6  0  0  0
 11 24  1  1  0  0  0
 12 25  1  6  0  0  0
 13 26  1  1  0  0  0
 14 27  1  6  0  0  0
M  END
> <DRUGBANK_ID>
DB07370

> <DRUG_GROUPS>
experimental

> <GENERIC_NAME>
(3Z,5S,6R,7S,8R,8aS)-3-(octylimino)hexahydro[1,3]thiazolo[3,4-a]pyridine-5,6,7,8-tetrol

> <CHEMICAL_FORMULA>
C15H28N2O4S

> <MOLECULAR_WEIGHT>
332.459

> <EXACT_MASS>
332.176978084

> <IUPAC_NAME>
(3Z,5S,6R,7S,8R,8aS)-3-(octylimino)-hexahydro-1H-[1,3]thiazolo[3,4-a]pyridine-5,6,7,8-tetrol

> <IUPAC_TRADITIONAL_NAME>
(3Z,5S,6R,7S,8R,8aS)-3-(octylimino)-hexahydro-[1,3]thiazolo[3,4-a]pyridine-5,6,7,8-tetrol

> <INCHI_IDENTIFIER>
InChI=1/C15H28N2O4S/c1-2-3-4-5-6-7-8-16-15-17-10(9-22-15)11(18)12(19)13(20)14(17)21/h10-14,18-21H,2-9H2,1H3/b16-15-/t10-,11-,12+,13-,14+/s2

> <INCHI_KEY>
InChIKey=HXWFEIXEWVGTGU-ONANFSEINA-N

> <SMILES>
[H][C@]12CS\C(=N/CCCCCCCC)N1[C@@]([H])(O)[C@]([H])(O)[C@@]([H])(O)[C@]2([H])O

> <JCHEM_ACCEPTOR_COUNT>
6

> <JCHEM_DONOR_COUNT>
4

> <JCHEM_ACIDIC_PKA>
12.18

> <JCHEM_BASIC_PKA>
4.18

> <JCHEM_PHYSIOLOGICAL_CHARGE>
0

> <ALOGPS_LOGP>
1.32

> <JCHEM_LOGP>
1.48

> <ALOGPS_LOGS>
-2.5

> <JCHEM_POLARIZABILITY>
37.64

> <JCHEM_POLAR_SURFACE_AREA>
96.52

> <JCHEM_REFRACTIVITY>
86.66

> <JCHEM_ROTATABLE_BOND_COUNT>
7

> <ALOGPS_SOLUBILITY>
1.18e+00 g/l __ 

$$$$
