DMW
  Mrv0541 02241213342D          

 14 15  0  0  0  0            999 V2000
   -0.8335   -0.4128    0.0000 C   0  0  0  0  0  0  0  0  0  0  0  0
   -1.5480   -0.8253    0.0000 C   0  0  0  0  0  0  0  0  0  0  0  0
   -0.1190   -0.8253    0.0000 C   0  0  0  0  0  0  0  0  0  0  0  0
   -0.1190   -1.6503    0.0000 O   0  0  0  0  0  0  0  0  0  0  0  0
    0.5954   -0.4128    0.0000 C   0  0  0  0  0  0  0  0  0  0  0  0
    0.5954    0.4122    0.0000 C   0  0  0  0  0  0  0  0  0  0  0  0
   -0.1190    0.8247    0.0000 C   0  0  0  0  0  0  0  0  0  0  0  0
   -0.1190    1.6497    0.0000 O   0  0  0  0  0  0  0  0  0  0  0  0
   -0.8335    0.4122    0.0000 C   0  0  0  0  0  0  0  0  0  0  0  0
    1.3099   -0.8253    0.0000 C   0  0  0  0  0  0  0  0  0  0  0  0
    2.0244   -0.4128    0.0000 C   0  0  0  0  0  0  0  0  0  0  0  0
    2.0244    0.4122    0.0000 C   0  0  0  0  0  0  0  0  0  0  0  0
    1.3099    0.8247    0.0000 C   0  0  0  0  0  0  0  0  0  0  0  0
   -1.5480    0.8247    0.0000 C   0  0  0  0  0  0  0  0  0  0  0  0
  1  2  1  0  0  0  0
  1  3  1  0  0  0  0
  1  9  2  0  0  0  0
  3  4  2  0  0  0  0
  3  5  1  0  0  0  0
  5  6  2  0  0  0  0
  5 10  1  0  0  0  0
  6  7  1  0  0  0  0
  6 13  1  0  0  0  0
  7  8  2  0  0  0  0
  7  9  1  0  0  0  0
  9 14  1  0  0  0  0
 10 11  2  0  0  0  0
 11 12  1  0  0  0  0
 12 13  2  0  0  0  0
M  END
> <DRUGBANK_ID>
DB07669

> <DRUG_GROUPS>
experimental

> <GENERIC_NAME>
2,3-DIMETHYL-1,4-NAPHTHOQUINONE

> <CHEMICAL_FORMULA>
C12H10O2

> <MOLECULAR_WEIGHT>
186.2066

> <EXACT_MASS>
186.068079564

> <IUPAC_NAME>
2,3-dimethyl-1,4-dihydronaphthalene-1,4-dione

> <IUPAC_TRADITIONAL_NAME>
2,3-dimethylnaphthalene-1,4-dione

> <INCHI_IDENTIFIER>
InChI=1S/C12H10O2/c1-7-8(2)12(14)10-6-4-3-5-9(10)11(7)13/h3-6H,1-2H3

> <INCHI_KEY>
InChIKey=LGFDNUSAWCHVJN-UHFFFAOYSA-N

> <SMILES>
CC1=C(C)C(=O)C2=C(C=CC=C2)C1=O

> <JCHEM_ACCEPTOR_COUNT>
2

> <JCHEM_DONOR_COUNT>
0

> <JCHEM_BASIC_PKA>
-7.2

> <JCHEM_PHYSIOLOGICAL_CHARGE>
0

> <ALOGPS_LOGP>
2.3

> <JCHEM_LOGP>
2.29

> <ALOGPS_LOGS>
-2.8

> <JCHEM_POLARIZABILITY>
19.68

> <JCHEM_POLAR_SURFACE_AREA>
34.14

> <JCHEM_REFRACTIVITY>
54.9

> <JCHEM_ROTATABLE_BOND_COUNT>
0

> <ALOGPS_SOLUBILITY>
3.12e-01 g/l __ 

$$$$
