D9G
  Mrv0541 02241213332D          

 19 18  0  0  0  0            999 V2000
   -4.7231    0.1222    0.0000 C   0  0  0  0  0  0  0  0  0  0  0  0
   -4.0085   -0.2903    0.0000 C   0  0  0  0  0  0  0  0  0  0  0  0
   -3.2940    0.1222    0.0000 C   0  0  0  0  0  0  0  0  0  0  0  0
   -2.5795   -0.2903    0.0000 C   0  0  0  0  0  0  0  0  0  0  0  0
   -1.8649    0.1222    0.0000 C   0  0  0  0  0  0  0  0  0  0  0  0
   -1.1505   -0.2903    0.0000 C   0  0  0  0  0  0  0  0  0  0  0  0
   -0.4359    0.1222    0.0000 C   0  0  0  0  0  0  0  0  0  0  0  0
    0.2786   -0.2903    0.0000 C   0  0  0  0  0  0  0  0  0  0  0  0
    0.9932    0.1222    0.0000 C   0  0  0  0  0  0  0  0  0  0  0  0
    1.7076   -0.2903    0.0000 C   0  0  0  0  0  0  0  0  0  0  0  0
    2.4222    0.1222    0.0000 C   0  0  0  0  0  0  0  0  0  0  0  0
    3.1367   -0.2903    0.0000 C   0  0  0  0  0  0  0  0  0  0  0  0
    3.8512    0.1222    0.0000 N   0  3  0  0  0  0  0  0  0  0  0  0
    4.2637   -0.5923    0.0000 C   0  0  0  0  0  0  0  0  0  0  0  0
    3.4387    0.8368    0.0000 C   0  0  0  0  0  0  0  0  0  0  0  0
    4.5657    0.5347    0.0000 C   0  0  0  0  0  0  0  0  0  0  0  0
    5.2803    0.1222    0.0000 C   0  0  0  0  0  0  0  0  0  0  0  0
    5.9948    0.5347    0.0000 O   0  5  0  0  0  0  0  0  0  0  0  0
    5.2803   -0.7029    0.0000 O   0  0  0  0  0  0  0  0  0  0  0  0
  1  2  1  0  0  0  0
  2  3  1  0  0  0  0
  3  4  1  0  0  0  0
  4  5  1  0  0  0  0
  5  6  1  0  0  0  0
  6  7  1  0  0  0  0
  7  8  1  0  0  0  0
  8  9  1  0  0  0  0
  9 10  1  0  0  0  0
 10 11  1  0  0  0  0
 11 12  1  0  0  0  0
 12 13  1  0  0  0  0
 13 14  1  0  0  0  0
 13 15  1  0  0  0  0
 13 16  1  0  0  0  0
 16 17  1  0  0  0  0
 17 18  1  0  0  0  0
 17 19  2  0  0  0  0
M  END
> <DRUGBANK_ID>
DB07631

> <DRUG_GROUPS>
experimental

> <GENERIC_NAME>
N-DODECYL-N,N-DIMETHYLGLYCINATE

> <CHEMICAL_FORMULA>
C16H33NO2

> <MOLECULAR_WEIGHT>
271.4387

> <EXACT_MASS>
271.251129305

> <IUPAC_NAME>
2-(dodecyldimethylazaniumyl)acetate

> <IUPAC_TRADITIONAL_NAME>
2-(dodecyldimethylaminio)acetate

> <INCHI_IDENTIFIER>
InChI=1S/C16H33NO2/c1-4-5-6-7-8-9-10-11-12-13-14-17(2,3)15-16(18)19/h4-15H2,1-3H3

> <INCHI_KEY>
InChIKey=DVEKCXOJTLDBFE-UHFFFAOYSA-N

> <SMILES>
CCCCCCCCCCCC[N+](C)(C)CC([O-])=O

> <JCHEM_ACCEPTOR_COUNT>
2

> <JCHEM_DONOR_COUNT>
0

> <JCHEM_ACIDIC_PKA>
2.62

> <JCHEM_PHYSIOLOGICAL_CHARGE>
0

> <ALOGPS_LOGP>
1.17

> <JCHEM_LOGP>
0.39

> <ALOGPS_LOGS>
-6.9

> <JCHEM_POLARIZABILITY>
34.96

> <JCHEM_POLAR_SURFACE_AREA>
40.13

> <JCHEM_REFRACTIVITY>
103.5

> <JCHEM_ROTATABLE_BOND_COUNT>
13

> <ALOGPS_SOLUBILITY>
4.03e-05 g/l __ 

$$$$
