IBR
  Mrv0541 02241213452D          

 16 16  0  0  0  0            999 V2000
   -1.2722   -1.3651    0.0000 C    0  0  0  0  0  0  0  0  0  0  0  0
   -1.9867   -1.7776    0.0000 O    0  0  0  0  0  0  0  0  0  0  0  0
   -0.5577   -0.1276    0.0000 C    0  0  0  0  0  0  0  0  0  0  0  0
   -1.2722   -0.5401    0.0000 C    0  0  0  0  0  0  0  0  0  0  0  0
   -1.9867   -0.1276    0.0000 C    0  0  0  0  0  0  0  0  0  0  0  0
   -1.9867    0.6974    0.0000 C    0  0  0  0  0  0  0  0  0  0  0  0
   -1.2722    1.1099    0.0000 C    0  0  0  0  0  0  0  0  0  0  0  0
   -0.5577    0.6974    0.0000 C    0  0  0  0  0  0  0  0  0  0  0  0
   -2.7011    1.1099    0.0000 N    0  0  0  0  0  0  0  0  0  0  0  0
    0.8712   -0.1276    0.0000 C    0  0  0  0  0  0  0  0  0  0  0  0
    0.1568   -0.5401    0.0000 C    0  0  0  0  0  0  0  0  0  0  0  0
    1.5857   -0.5401    0.0000 O    0  0  0  0  0  0  0  0  0  0  0  0
    0.8712    0.6974    0.0000 O    0  0  0  0  0  0  0  0  0  0  0  0
    3.0146   -0.5401    0.0000 C    0  0  0  0  0  0  0  0  0  0  0  0
    2.3002   -0.1276    0.0000 C    0  0  0  0  0  0  0  0  0  0  0  0
    3.7291   -0.1276    0.0000 Br   0  0  0  0  0  0  0  0  0  0  0  0
  1  2  2  0  0  0  0
  1  4  1  0  0  0  0
  3  4  2  0  0  0  0
  3  8  1  0  0  0  0
  3 11  1  0  0  0  0
  4  5  1  0  0  0  0
  5  6  2  0  0  0  0
  6  7  1  0  0  0  0
  6  9  1  0  0  0  0
  7  8  2  0  0  0  0
 10 11  1  0  0  0  0
 10 12  1  0  0  0  0
 10 13  2  0  0  0  0
 12 15  1  0  0  0  0
 14 15  1  0  0  0  0
 14 16  1  0  0  0  0
M  END
> <DRUGBANK_ID>
DB07955

> <DRUG_GROUPS>
experimental

> <GENERIC_NAME>
(2-BROMOETHYL)(2-'FORMYL-4'-AMINOPHENYL) ACETATE

> <CHEMICAL_FORMULA>
C11H12BrNO3

> <MOLECULAR_WEIGHT>
286.122

> <EXACT_MASS>
285.000055902

> <IUPAC_NAME>
2-bromoethyl 2-(4-amino-2-formylphenyl)acetate

> <IUPAC_TRADITIONAL_NAME>
2-bromoethyl 2-(4-amino-2-formylphenyl)acetate

> <INCHI_IDENTIFIER>
InChI=1S/C11H12BrNO3/c12-3-4-16-11(15)6-8-1-2-10(13)5-9(8)7-14/h1-2,5,7H,3-4,6,13H2

> <INCHI_KEY>
InChIKey=SMKXVWWBCFWRMP-UHFFFAOYSA-N

> <SMILES>
NC1=CC(C=O)=C(CC(=O)OCCBr)C=C1

> <JCHEM_ACCEPTOR_COUNT>
3

> <JCHEM_DONOR_COUNT>
1

> <JCHEM_BASIC_PKA>
3.14

> <JCHEM_PHYSIOLOGICAL_CHARGE>
0

> <ALOGPS_LOGP>
1.82

> <JCHEM_LOGP>
1.49

> <ALOGPS_LOGS>
-3.4

> <JCHEM_POLARIZABILITY>
24.82

> <JCHEM_POLAR_SURFACE_AREA>
69.39

> <JCHEM_REFRACTIVITY>
65.75

> <JCHEM_ROTATABLE_BOND_COUNT>
6

> <ALOGPS_SOLUBILITY>
1.19e-01 g/l __ 

$$$$
