BHF
  Mrv0541 02241213262D          

 21 24  0  0  0  0            999 V2000
   -1.2475    0.6721    0.0000 C   0  0  0  0  0  0  0  0  0  0  0  0
   -0.8350    1.3865    0.0000 C   0  0  0  0  0  0  0  0  0  0  0  0
   -1.2475    2.1010    0.0000 O   0  0  0  0  0  0  0  0  0  0  0  0
   -0.0100    1.3865    0.0000 C   0  0  0  0  0  0  0  0  0  0  0  0
    0.4025    2.1010    0.0000 C   0  0  0  0  0  0  0  0  0  0  0  0
    1.2275    2.1010    0.0000 C   0  0  0  0  0  0  0  0  0  0  0  0
    1.6400    1.3865    0.0000 C   0  0  0  0  0  0  0  0  0  0  0  0
    2.4650    1.3865    0.0000 C   0  0  0  0  0  0  0  0  0  0  0  0
    2.8775    0.6721    0.0000 C   0  0  0  0  0  0  0  0  0  0  0  0
    2.4650   -0.0424    0.0000 C   0  0  0  0  0  0  0  0  0  0  0  0
    1.6400   -0.0424    0.0000 C   0  0  0  0  0  0  0  0  0  0  0  0
    1.2275    0.6721    0.0000 C   0  0  0  0  0  0  0  0  0  0  0  0
    0.4025    0.6721    0.0000 C   0  0  0  0  0  0  0  0  0  0  0  0
   -0.0100   -0.0424    0.0000 O   0  0  0  0  0  0  0  0  0  0  0  0
   -0.8350   -0.0424    0.0000 C   0  0  0  0  0  0  0  0  0  0  0  0
   -1.2475   -0.7569    0.0000 C   0  0  0  0  0  0  0  0  0  0  0  0
   -0.8350   -1.4713    0.0000 C   0  0  0  0  0  0  0  0  0  0  0  0
   -1.2475   -2.1858    0.0000 C   0  0  0  0  0  0  0  0  0  0  0  0
   -2.0725   -2.1858    0.0000 C   0  0  0  0  0  0  0  0  0  0  0  0
   -2.4850   -1.4713    0.0000 C   0  0  0  0  0  0  0  0  0  0  0  0
   -2.0725   -0.7569    0.0000 C   0  0  0  0  0  0  0  0  0  0  0  0
  1  2  1  0  0  0  0
  1 15  2  0  0  0  0
  2  3  2  0  0  0  0
  2  4  1  0  0  0  0
  4  5  1  0  0  0  0
  4 13  2  0  0  0  0
  5  6  2  0  0  0  0
  6  7  1  0  0  0  0
  7  8  2  0  0  0  0
  7 12  1  0  0  0  0
  8  9  1  0  0  0  0
  9 10  2  0  0  0  0
 10 11  1  0  0  0  0
 11 12  2  0  0  0  0
 12 13  1  0  0  0  0
 13 14  1  0  0  0  0
 14 15  1  0  0  0  0
 15 16  1  0  0  0  0
 16 17  2  0  0  0  0
 16 21  1  0  0  0  0
 17 18  1  0  0  0  0
 18 19  2  0  0  0  0
 19 20  1  0  0  0  0
 20 21  2  0  0  0  0
M  END
> <DRUGBANK_ID>
DB07453

> <DRUG_GROUPS>
experimental

> <GENERIC_NAME>
2-PHENYL-4H-BENZO[H]CHROMEN-4-ONE

> <CHEMICAL_FORMULA>
C19H12O2

> <MOLECULAR_WEIGHT>
272.2974

> <EXACT_MASS>
272.083729628

> <IUPAC_NAME>
2-phenyl-4H-benzo[h]chromen-4-one

> <IUPAC_TRADITIONAL_NAME>
Î±-naphthoflavone

> <INCHI_IDENTIFIER>
InChI=1S/C19H12O2/c20-17-12-18(14-7-2-1-3-8-14)21-19-15-9-5-4-6-13(15)10-11-16(17)19/h1-12H

> <INCHI_KEY>
InChIKey=VFMMPHCGEFXGIP-UHFFFAOYSA-N

> <SMILES>
O=C1C=C(OC2=C1C=CC1=CC=CC=C21)C1=CC=CC=C1

> <JCHEM_ACCEPTOR_COUNT>
2

> <JCHEM_DONOR_COUNT>
0

> <JCHEM_ACIDIC_PKA>
15.56

> <JCHEM_BASIC_PKA>
-5.4

> <JCHEM_PHYSIOLOGICAL_CHARGE>
0

> <ALOGPS_LOGP>
4.73

> <JCHEM_LOGP>
3.96

> <ALOGPS_LOGS>
-5.5

> <JCHEM_POLARIZABILITY>
29.73

> <JCHEM_POLAR_SURFACE_AREA>
26.3

> <JCHEM_REFRACTIVITY>
83.42

> <JCHEM_ROTATABLE_BOND_COUNT>
1

> <ALOGPS_SOLUBILITY>
8.71e-04 g/l __ 

$$$$
