605
  Mrv0541 02241213152D          

 27 29  0  0  0  0            999 V2000
   -3.2854    2.1745    0.0000 C   0  0  0  0  0  0  0  0  0  0  0  0
   -2.5709    1.7620    0.0000 C   0  0  0  0  0  0  0  0  0  0  0  0
   -2.5709    0.9370    0.0000 C   0  0  0  0  0  0  0  0  0  0  0  0
   -3.2854    0.5245    0.0000 C   0  0  0  0  0  0  0  0  0  0  0  0
   -3.9998    0.9370    0.0000 C   0  0  0  0  0  0  0  0  0  0  0  0
   -3.9998    1.7620    0.0000 C   0  0  0  0  0  0  0  0  0  0  0  0
   -1.8564    0.5245    0.0000 C   0  0  0  0  0  0  0  0  0  0  0  0
   -1.1419    0.9370    0.0000 C   0  0  2  0  0  0  0  0  0  0  0  0
   -0.4275    0.5245    0.0000 C   0  0  0  0  0  0  0  0  0  0  0  0
   -1.1419    1.7620    0.0000 N   0  0  0  0  0  0  0  0  0  0  0  0
    0.2870    0.9370    0.0000 C   0  0  0  0  0  0  0  0  0  0  0  0
    1.0015    0.5245    0.0000 C   0  0  0  0  0  0  0  0  0  0  0  0
    1.0015   -0.3005    0.0000 C   0  0  0  0  0  0  0  0  0  0  0  0
    0.2870   -0.7130    0.0000 C   0  0  0  0  0  0  0  0  0  0  0  0
   -0.4275   -0.3005    0.0000 C   0  0  0  0  0  0  0  0  0  0  0  0
    1.7159   -0.7130    0.0000 C   0  0  0  0  0  0  0  0  0  0  0  0
    2.4304   -0.3005    0.0000 C   0  0  0  0  0  0  0  0  0  0  0  0
    3.1449   -0.7130    0.0000 C   0  0  0  0  0  0  0  0  0  0  0  0
    3.1449   -1.5380    0.0000 C   0  0  0  0  0  0  0  0  0  0  0  0
    2.4304   -1.9505    0.0000 C   0  0  0  0  0  0  0  0  0  0  0  0
    1.7159   -1.5380    0.0000 C   0  0  0  0  0  0  0  0  0  0  0  0
   -4.7143    0.5245    0.0000 F   0  0  0  0  0  0  0  0  0  0  0  0
   -1.8564    2.1745    0.0000 F   0  0  0  0  0  0  0  0  0  0  0  0
    2.4304   -2.7755    0.0000 C   0  0  0  0  0  0  0  0  0  0  0  0
    3.1449   -3.1880    0.0000 N   0  0  0  0  0  0  0  0  0  0  0  0
    1.7159   -3.1880    0.0000 O   0  0  0  0  0  0  0  0  0  0  0  0
   -1.1419    0.3531    0.0000 H   0  0  0  0  0  0  0  0  0  0  0  0
  1  2  2  0  0  0  0
  1  6  1  0  0  0  0
  2  3  1  0  0  0  0
  2 23  1  0  0  0  0
  3  4  2  0  0  0  0
  3  7  1  0  0  0  0
  4  5  1  0  0  0  0
  5  6  2  0  0  0  0
  5 22  1  0  0  0  0
  7  8  1  0  0  0  0
  8  9  1  0  0  0  0
  8 10  1  6  0  0  0
  8 27  1  6  0  0  0
  9 11  2  0  0  0  0
  9 15  1  0  0  0  0
 11 12  1  0  0  0  0
 12 13  2  0  0  0  0
 13 14  1  0  0  0  0
 13 16  1  0  0  0  0
 14 15  2  0  0  0  0
 16 17  2  0  0  0  0
 16 21  1  0  0  0  0
 17 18  1  0  0  0  0
 18 19  2  0  0  0  0
 19 20  1  0  0  0  0
 20 21  2  0  0  0  0
 20 24  1  0  0  0  0
 24 25  1  0  0  0  0
 24 26  2  0  0  0  0
M  END
> <DRUGBANK_ID>
DB07181

> <DRUG_GROUPS>
experimental

> <GENERIC_NAME>
4'-[(1R)-1-amino-2-(2,5-difluorophenyl)ethyl]biphenyl-3-carboxamide

> <CHEMICAL_FORMULA>
C21H18F2N2O

> <MOLECULAR_WEIGHT>
352.3772

> <EXACT_MASS>
352.138719618

> <IUPAC_NAME>
3-{4-[(1R)-1-amino-2-(2,5-difluorophenyl)ethyl]phenyl}benzamide

> <IUPAC_TRADITIONAL_NAME>
3-{4-[(1R)-1-amino-2-(2,5-difluorophenyl)ethyl]phenyl}benzamide

> <INCHI_IDENTIFIER>
InChI=1S/C21H18F2N2O/c22-18-8-9-19(23)17(11-18)12-20(24)14-6-4-13(5-7-14)15-2-1-3-16(10-15)21(25)26/h1-11,20H,12,24H2,(H2,25,26)/t20-/m1/s1

> <INCHI_KEY>
InChIKey=JYKFWUXBFJJDTP-HXUWFJFHSA-N

> <SMILES>
[H][C@@](N)(CC1=CC(F)=CC=C1F)C1=CC=C(C=C1)C1=CC=CC(=C1)C(N)=O

> <JCHEM_ACCEPTOR_COUNT>
2

> <JCHEM_DONOR_COUNT>
2

> <JCHEM_ACIDIC_PKA>
14.64

> <JCHEM_BASIC_PKA>
9.51

> <JCHEM_PHYSIOLOGICAL_CHARGE>
1

> <ALOGPS_LOGP>
3.42

> <JCHEM_LOGP>
3.96

> <ALOGPS_LOGS>
-5.5

> <JCHEM_POLARIZABILITY>
35.67

> <JCHEM_POLAR_SURFACE_AREA>
69.11

> <JCHEM_REFRACTIVITY>
98.22

> <JCHEM_ROTATABLE_BOND_COUNT>
5

> <ALOGPS_SOLUBILITY>
1.17e-03 g/l __ 

$$$$
