AJI
  Mrv0541 02241213232D          

 30 33  0  0  0  0            999 V2000
   -3.3063    2.2567    0.0000 C   0  0  0  0  0  0  0  0  0  0  0  0
   -0.7350   -3.7607    0.0000 C   0  0  0  0  0  0  0  0  0  0  0  0
    3.6305    0.3134    0.0000 C   0  0  0  0  0  0  0  0  0  0  0  0
    3.4812    1.7345    0.0000 C   0  0  0  0  0  0  0  0  0  0  0  0
    2.8101    0.2272    0.0000 C   0  0  0  0  0  0  0  0  0  0  0  0
    2.6607    1.6483    0.0000 C   0  0  0  0  0  0  0  0  0  0  0  0
    1.6540   -0.6128    0.0000 C   0  0  0  0  0  0  0  0  0  0  0  0
    1.3185   -1.3664    0.0000 C   0  0  0  0  0  0  0  0  0  0  0  0
   -1.8542    2.4866    0.0000 C   0  0  0  0  0  0  0  0  0  0  0  0
   -1.8775   -2.8355    0.0000 C   0  0  0  0  0  0  0  0  0  0  0  0
   -2.5216    2.0017    0.0000 C   0  0  0  0  0  0  0  0  0  0  0  0
    3.9661    1.0671    0.0000 C   0  0  0  0  0  0  0  0  0  0  0  0
    2.3251    0.8946    0.0000 C   0  0  0  0  0  0  0  0  0  0  0  0
    1.1691    0.0547    0.0000 C   0  0  0  0  0  0  0  0  0  0  0  0
    0.4980   -1.4527    0.0000 C   0  0  0  0  0  0  0  0  0  0  0  0
    0.3486   -0.0315    0.0000 C   0  0  0  0  0  0  0  0  0  0  0  0
   -1.4417    1.2171    0.0000 C   0  0  0  0  0  0  0  0  0  0  0  0
   -0.6581   -2.2926    0.0000 C   0  0  0  0  0  0  0  0  0  0  0  0
   -0.1363    0.6359    0.0000 C   0  0  0  0  0  0  0  0  0  0  0  0
   -1.9638   -2.0150    0.0000 N   0  0  0  0  0  0  0  0  0  0  0  0
   -2.2667    1.2171    0.0000 N   0  0  0  0  0  0  0  0  0  0  0  0
    0.0131   -0.7852    0.0000 N   0  0  0  0  0  0  0  0  0  0  0  0
   -1.2101   -1.6795    0.0000 N   0  0  0  0  0  0  0  0  0  0  0  0
   -0.9568    0.5497    0.0000 N   0  0  0  0  0  0  0  0  0  0  0  0
   -1.0706   -3.0070    0.0000 N   0  0  0  0  0  0  0  0  0  0  0  0
    0.1993    1.3896    0.0000 O   0  0  0  0  0  0  0  0  0  0  0  0
    4.7866    1.1533    0.0000 F   0  0  0  0  0  0  0  0  0  0  0  0
   -1.1868    2.0017    0.0000 S   0  0  0  0  0  0  0  0  0  0  0  0
    1.5047    0.8084    0.0000 S   0  0  0  0  0  0  0  0  0  0  0  0
    0.1624   -2.2063    0.0000 S   0  0  0  0  0  0  0  0  0  0  0  0
  1 11  1  0  0  0  0
  2 25  1  0  0  0  0
  3  5  2  0  0  0  0
  3 12  1  0  0  0  0
  4  6  1  0  0  0  0
  4 12  2  0  0  0  0
  5 13  1  0  0  0  0
  6 13  2  0  0  0  0
  7  8  2  0  0  0  0
  7 14  1  0  0  0  0
  8 15  1  0  0  0  0
  9 11  2  0  0  0  0
  9 28  1  0  0  0  0
 10 20  2  0  0  0  0
 10 25  1  0  0  0  0
 11 21  1  0  0  0  0
 12 27  1  0  0  0  0
 13 29  1  0  0  0  0
 14 16  2  0  0  0  0
 14 29  1  0  0  0  0
 15 22  2  0  0  0  0
 15 30  1  0  0  0  0
 16 19  1  0  0  0  0
 16 22  1  0  0  0  0
 17 21  2  0  0  0  0
 17 24  1  0  0  0  0
 17 28  1  0  0  0  0
 18 23  2  0  0  0  0
 18 25  1  0  0  0  0
 18 30  1  0  0  0  0
 19 24  1  0  0  0  0
 19 26  2  0  0  0  0
 20 23  1  0  0  0  0
M  END
> <DRUGBANK_ID>
DB07359

> <DRUG_GROUPS>
experimental

> <GENERIC_NAME>
3-[(4-fluorophenyl)sulfanyl]-N-(4-methyl-1,3-thiazol-2-yl)-6-[(4-methyl-4H-1,2,4-triazol-3-yl)sulfanyl]pyridine-2-carboxamide

> <CHEMICAL_FORMULA>
C19H15FN6OS3

> <MOLECULAR_WEIGHT>
458.555

> <EXACT_MASS>
458.045349407

> <IUPAC_NAME>
3-[(4-fluorophenyl)sulfanyl]-N-(4-methyl-1,3-thiazol-2-yl)-6-[(4-methyl-4H-1,2,4-triazol-3-yl)sulfanyl]pyridine-2-carboxamide

> <IUPAC_TRADITIONAL_NAME>
3-[(4-fluorophenyl)sulfanyl]-6-[(4-methyl-1,2,4-triazol-3-yl)sulfanyl]-N-(4-methyl-1,3-thiazol-2-yl)pyridine-2-carboxamide

> <INCHI_IDENTIFIER>
InChI=1S/C19H15FN6OS3/c1-11-9-28-18(22-11)24-17(27)16-14(29-13-5-3-12(20)4-6-13)7-8-15(23-16)30-19-25-21-10-26(19)2/h3-10H,1-2H3,(H,22,24,27)

> <INCHI_KEY>
InChIKey=SJTQKYKXCYVFHX-UHFFFAOYSA-N

> <SMILES>
CN1C=NN=C1SC1=NC(C(=O)NC2=NC(C)=CS2)=C(SC2=CC=C(F)C=C2)C=C1

> <JCHEM_ACCEPTOR_COUNT>
5

> <JCHEM_DONOR_COUNT>
1

> <JCHEM_ACIDIC_PKA>
8.2

> <JCHEM_BASIC_PKA>
1.73

> <JCHEM_PHYSIOLOGICAL_CHARGE>
0

> <ALOGPS_LOGP>
3.76

> <JCHEM_LOGP>
4.65

> <ALOGPS_LOGS>
-4.3

> <JCHEM_POLARIZABILITY>
45.44

> <JCHEM_POLAR_SURFACE_AREA>
85.59

> <JCHEM_REFRACTIVITY>
121.77

> <JCHEM_ROTATABLE_BOND_COUNT>
6

> <ALOGPS_SOLUBILITY>
2.19e-02 g/l __ 

$$$$
