BRV
  Mrv0541 02241213282D          

 16 16  0  0  0  0            999 V2000
    0.1059   -1.5485    0.0000 C    0  0  0  0  0  0  0  0  0  0  0  0
   -1.3230    0.9265    0.0000 C    0  0  0  0  0  0  0  0  0  0  0  0
    0.8204    0.5140    0.0000 C    0  0  0  0  0  0  0  0  0  0  0  0
    0.8204   -0.3110    0.0000 C    0  0  0  0  0  0  0  0  0  0  0  0
    0.1059   -0.7235    0.0000 C    0  0  0  0  0  0  0  0  0  0  0  0
   -0.6085   -0.3110    0.0000 C    0  0  0  0  0  0  0  0  0  0  0  0
    1.5349    0.9265    0.0000 N    0  0  0  0  0  0  0  0  0  0  0  0
   -1.3230   -0.7235    0.0000 Br   0  0  0  0  0  0  0  0  0  0  0  0
    1.5349   -0.7235    0.0000 Br   0  0  0  0  0  0  0  0  0  0  0  0
    0.1059    1.7515    0.0000 Br   0  0  0  0  0  0  0  0  0  0  0  0
   -0.6085    0.5140    0.0000 C    0  0  0  0  0  0  0  0  0  0  0  0
    0.1059    0.9265    0.0000 C    0  0  0  0  0  0  0  0  0  0  0  0
   -2.0375    0.5140    0.0000 O    0  0  0  0  0  0  0  0  0  0  0  0
   -1.3230    1.7515    0.0000 O    0  0  0  0  0  0  0  0  0  0  0  0
   -0.6085   -1.9610    0.0000 O    0  0  0  0  0  0  0  0  0  0  0  0
    0.8204   -1.9610    0.0000 O    0  0  0  0  0  0  0  0  0  0  0  0
  1  5  1  0  0  0  0
  1 15  2  0  0  0  0
  1 16  1  0  0  0  0
  2 11  1  0  0  0  0
  2 13  1  0  0  0  0
  2 14  2  0  0  0  0
  3  4  2  0  0  0  0
  3  7  1  0  0  0  0
  3 12  1  0  0  0  0
  4  5  1  0  0  0  0
  4  9  1  0  0  0  0
  5  6  2  0  0  0  0
  6  8  1  0  0  0  0
  6 11  1  0  0  0  0
 10 12  1  0  0  0  0
 11 12  2  0  0  0  0
M  END
> <DRUGBANK_ID>
DB07491

> <DRUG_GROUPS>
experimental

> <GENERIC_NAME>
5-amino-2,4,6-tribromobenzene-1,3-dicarboxylic acid

> <CHEMICAL_FORMULA>
C8H4Br3NO4

> <MOLECULAR_WEIGHT>
417.834

> <EXACT_MASS>
414.769045562

> <IUPAC_NAME>
5-amino-2,4,6-tribromobenzene-1,3-dicarboxylic acid

> <IUPAC_TRADITIONAL_NAME>
5-amino-2,4,6-tribromobenzene-1,3-dicarboxylic acid

> <INCHI_IDENTIFIER>
InChI=1S/C8H4Br3NO4/c9-3-1(7(13)14)4(10)6(12)5(11)2(3)8(15)16/h12H2,(H,13,14)(H,15,16)

> <INCHI_KEY>
InChIKey=KGKQFJKPOZCZLD-UHFFFAOYSA-N

> <SMILES>
NC1=C(Br)C(C(O)=O)=C(Br)C(C(O)=O)=C1Br

> <JCHEM_ACCEPTOR_COUNT>
5

> <JCHEM_DONOR_COUNT>
3

> <JCHEM_ACIDIC_PKA>
2.55

> <JCHEM_BASIC_PKA>
0.16

> <JCHEM_PHYSIOLOGICAL_CHARGE>
-2

> <ALOGPS_LOGP>
2.5

> <JCHEM_LOGP>
2.77

> <ALOGPS_LOGS>
-4.3

> <JCHEM_POLARIZABILITY>
26.29

> <JCHEM_POLAR_SURFACE_AREA>
100.62

> <JCHEM_REFRACTIVITY>
68.14

> <JCHEM_ROTATABLE_BOND_COUNT>
2

> <ALOGPS_SOLUBILITY>
2.06e-02 g/l __ 

$$$$
