388
  Mrv0541 02241213092D          

 24 25  0  0  0  0            999 V2000
    2.8586   -1.6997    0.0000 C    0  0  0  0  0  0  0  0  0  0  0  0
    2.1441   -1.2872    0.0000 N    0  0  0  0  0  0  0  0  0  0  0  0
    2.1441   -0.4622    0.0000 C    0  0  0  0  0  0  0  0  0  0  0  0
    2.8586   -0.0497    0.0000 O    0  0  0  0  0  0  0  0  0  0  0  0
    2.8586   -2.5247    0.0000 C    0  0  0  0  0  0  0  0  0  0  0  0
    3.5731   -2.9372    0.0000 C    0  0  0  0  0  0  0  0  0  0  0  0
    4.2876   -2.5247    0.0000 F    0  0  0  0  0  0  0  0  0  0  0  0
    3.5731   -3.7622    0.0000 C    0  0  0  0  0  0  0  0  0  0  0  0
    2.8586   -4.1747    0.0000 C    0  0  0  0  0  0  0  0  0  0  0  0
    2.8586   -4.9997    0.0000 Br   0  0  0  0  0  0  0  0  0  0  0  0
    2.1441   -3.7622    0.0000 C    0  0  0  0  0  0  0  0  0  0  0  0
    2.1441   -2.9372    0.0000 C    0  0  0  0  0  0  0  0  0  0  0  0
    1.4297   -0.0497    0.0000 C    0  0  0  0  0  0  0  0  0  0  0  0
    0.7152   -0.4622    0.0000 C    0  0  0  0  0  0  0  0  0  0  0  0
    0.0007   -0.0497    0.0000 C    0  0  0  0  0  0  0  0  0  0  0  0
    0.0007    0.7753    0.0000 C    0  0  0  0  0  0  0  0  0  0  0  0
   -0.7137    1.1878    0.0000 Cl   0  0  0  0  0  0  0  0  0  0  0  0
    0.7152    1.1878    0.0000 C    0  0  0  0  0  0  0  0  0  0  0  0
    1.4297    0.7753    0.0000 C    0  0  0  0  0  0  0  0  0  0  0  0
    2.1441    1.1878    0.0000 O    0  0  0  0  0  0  0  0  0  0  0  0
    2.1441    2.0128    0.0000 C    0  0  0  0  0  0  0  0  0  0  0  0
    2.8586    2.4253    0.0000 C    0  0  0  0  0  0  0  0  0  0  0  0
    2.8586    3.2503    0.0000 O    0  0  0  0  0  0  0  0  0  0  0  0
    3.5731    2.0128    0.0000 O    0  0  0  0  0  0  0  0  0  0  0  0
  1  5  1  0  0  0  0
  1  2  1  0  0  0  0
  2  3  1  0  0  0  0
  3  4  2  0  0  0  0
  3 13  1  0  0  0  0
  5  6  2  0  0  0  0
  5 12  1  0  0  0  0
  6  8  1  0  0  0  0
  6  7  1  0  0  0  0
  8  9  2  0  0  0  0
  9 10  1  0  0  0  0
  9 11  1  0  0  0  0
 11 12  2  0  0  0  0
 13 14  2  0  0  0  0
 13 19  1  0  0  0  0
 14 15  1  0  0  0  0
 15 16  2  0  0  0  0
 16 18  1  0  0  0  0
 16 17  1  0  0  0  0
 18 19  2  0  0  0  0
 19 20  1  0  0  0  0
 20 21  1  0  0  0  0
 21 22  1  0  0  0  0
 22 23  2  0  0  0  0
 22 24  1  0  0  0  0
M  END
> <DRUGBANK_ID>
DB07028

> <DRUG_GROUPS>
experimental

> <GENERIC_NAME>
(2-{[(4-BROMO-2-FLUOROBENZYL)AMINO]CARBONYL}-5-CHLOROPHENOXY)ACETIC ACID

> <CHEMICAL_FORMULA>
C16H12BrClFNO4

> <MOLECULAR_WEIGHT>
416.626

> <EXACT_MASS>
414.962226436

> <IUPAC_NAME>
2-(2-{[(4-bromo-2-fluorophenyl)methyl]carbamoyl}-5-chlorophenoxy)acetic acid

> <IUPAC_TRADITIONAL_NAME>
2-{[(4-bromo-2-fluorophenyl)methyl]carbamoyl}-5-chlorophenoxyacetic acid

> <INCHI_IDENTIFIER>
InChI=1S/C16H12BrClFNO4/c17-10-2-1-9(13(19)5-10)7-20-16(23)12-4-3-11(18)6-14(12)24-8-15(21)22/h1-6H,7-8H2,(H,20,23)(H,21,22)

> <INCHI_KEY>
InChIKey=ZLIGBZRXAQNUFO-UHFFFAOYSA-N

> <SMILES>
OC(=O)COC1=CC(Cl)=CC=C1C(=O)NCC1=C(F)C=C(Br)C=C1

> <JCHEM_ACCEPTOR_COUNT>
4

> <JCHEM_DONOR_COUNT>
2

> <JCHEM_ACIDIC_PKA>
2.97

> <JCHEM_BASIC_PKA>
-1.4

> <JCHEM_PHYSIOLOGICAL_CHARGE>
-1

> <ALOGPS_LOGP>
3.77

> <JCHEM_LOGP>
3.61

> <ALOGPS_LOGS>
-5.1

> <JCHEM_POLARIZABILITY>
35.58

> <JCHEM_POLAR_SURFACE_AREA>
75.63

> <JCHEM_REFRACTIVITY>
89.84

> <JCHEM_ROTATABLE_BOND_COUNT>
6

> <ALOGPS_SOLUBILITY>
3.55e-03 g/l __ 

$$$$
