4PI
  Mrv0541 02241213132D          

 22 24  0  0  0  0            999 V2000
   -2.8194    0.7317    0.0000 C   0  0  0  0  0  0  0  0  0  0  0  0
   -3.5339    0.3192    0.0000 C   0  0  0  0  0  0  0  0  0  0  0  0
   -3.5339   -0.5058    0.0000 C   0  0  0  0  0  0  0  0  0  0  0  0
   -2.1049   -2.9808    0.0000 C   0  0  0  0  0  0  0  0  0  0  0  0
   -1.3904   -3.3933    0.0000 C   0  0  0  0  0  0  0  0  0  0  0  0
   -0.6760   -2.9808    0.0000 C   0  0  0  0  0  0  0  0  0  0  0  0
   -0.6760   -2.1558    0.0000 C   0  0  0  0  0  0  0  0  0  0  0  0
   -1.3904   -1.7433    0.0000 C   0  0  0  0  0  0  0  0  0  0  0  0
    0.7530   -2.9808    0.0000 C   0  0  0  0  0  0  0  0  0  0  0  0
    1.4674   -3.3933    0.0000 C   0  0  0  0  0  0  0  0  0  0  0  0
    2.1819   -2.1558    0.0000 C   0  0  0  0  0  0  0  0  0  0  0  0
   -2.8194    1.5567    0.0000 C   0  0  0  0  0  0  0  0  0  0  0  0
   -2.8194   -1.7433    0.0000 C   0  0  0  0  0  0  0  0  0  0  0  0
   -2.1049   -2.1558    0.0000 N   0  0  0  0  0  0  0  0  0  0  0  0
    2.1819   -2.9808    0.0000 C   0  0  0  0  0  0  0  0  0  0  0  0
    1.4674   -1.7433    0.0000 C   0  0  0  0  0  0  0  0  0  0  0  0
    0.7530   -2.1558    0.0000 C   0  0  0  0  0  0  0  0  0  0  0  0
   -3.5339   -2.1558    0.0000 O   0  0  0  0  0  0  0  0  0  0  0  0
    0.0385   -3.3933    0.0000 C   0  0  0  0  0  0  0  0  0  0  0  0
   -2.8194   -0.9183    0.0000 C   0  0  0  0  0  0  0  0  0  0  0  0
   -2.1049   -0.5058    0.0000 C   0  0  0  0  0  0  0  0  0  0  0  0
   -2.1049    0.3192    0.0000 C   0  0  0  0  0  0  0  0  0  0  0  0
  1 12  1  0  0  0  0
  1 22  2  0  0  0  0
  1  2  1  0  0  0  0
  2  3  2  0  0  0  0
  3 20  1  0  0  0  0
  4 14  1  0  0  0  0
  4  5  1  0  0  0  0
  5  6  1  0  0  0  0
  6  7  1  0  0  0  0
  6 19  1  0  0  0  0
  7  8  1  0  0  0  0
  8 14  1  0  0  0  0
  9 17  1  0  0  0  0
  9 19  1  0  0  0  0
  9 10  2  0  0  0  0
 10 15  1  0  0  0  0
 11 16  1  0  0  0  0
 11 15  2  0  0  0  0
 13 18  2  0  0  0  0
 13 20  1  0  0  0  0
 13 14  1  0  0  0  0
 16 17  2  0  0  0  0
 20 21  2  0  0  0  0
 21 22  1  0  0  0  0
M  END
> <DRUGBANK_ID>
DB07123

> <DRUG_GROUPS>
experimental

> <GENERIC_NAME>
N-(4-METHYLBENZOYL)-4-BENZYLPIPERIDINE

> <CHEMICAL_FORMULA>
C20H23NO

> <MOLECULAR_WEIGHT>
293.4027

> <EXACT_MASS>
293.177964363

> <IUPAC_NAME>
4-benzyl-1-[(4-methylphenyl)carbonyl]piperidine

> <IUPAC_TRADITIONAL_NAME>
4-benzyl-1-[(4-methylphenyl)carbonyl]piperidine

> <INCHI_IDENTIFIER>
InChI=1S/C20H23NO/c1-16-7-9-19(10-8-16)20(22)21-13-11-18(12-14-21)15-17-5-3-2-4-6-17/h2-10,18H,11-15H2,1H3

> <INCHI_KEY>
InChIKey=DVOLWKZEIDCCES-UHFFFAOYSA-N

> <SMILES>
CC1=CC=C(C=C1)C(=O)N1CCC(CC2=CC=CC=C2)CC1

> <JCHEM_ACCEPTOR_COUNT>
1

> <JCHEM_DONOR_COUNT>
0

> <JCHEM_BASIC_PKA>
-0.024

> <JCHEM_PHYSIOLOGICAL_CHARGE>
0

> <ALOGPS_LOGP>
4.49

> <JCHEM_LOGP>
4.5

> <ALOGPS_LOGS>
-5

> <JCHEM_POLARIZABILITY>
34.71

> <JCHEM_POLAR_SURFACE_AREA>
20.31

> <JCHEM_REFRACTIVITY>
91.36

> <JCHEM_ROTATABLE_BOND_COUNT>
3

> <ALOGPS_SOLUBILITY>
3.14e-03 g/l __ 

$$$$
