CQW
  Mrv0541 02241213312D          

 19 22  0  0  0  0            999 V2000
    1.4332   -1.4651    0.0000 C    0  0  0  0  0  0  0  0  0  0  0  0
    2.1477   -0.2276    0.0000 C    0  0  0  0  0  0  0  0  0  0  0  0
    0.7188   -1.0526    0.0000 C    0  0  0  0  0  0  0  0  0  0  0  0
   -1.4246    1.0099    0.0000 C    0  0  0  0  0  0  0  0  0  0  0  0
    1.2617   -2.2721    0.0000 N    0  0  0  0  0  0  0  0  0  0  0  0
   -0.7102    1.4224    0.0000 C    0  0  0  0  0  0  0  0  0  0  0  0
   -0.7013   -1.4331    0.0000 Cl   0  0  0  0  0  0  0  0  0  0  0  0
    0.1057   -1.6046    0.0000 C    0  0  0  0  0  0  0  0  0  0  0  0
    0.4412   -2.3583    0.0000 C    0  0  0  0  0  0  0  0  0  0  0  0
    2.1477   -1.0526    0.0000 N    0  0  0  0  0  0  0  0  0  0  0  0
    0.7188   -0.2276    0.0000 C    0  0  0  0  0  0  0  0  0  0  0  0
    1.4332    0.1849    0.0000 N    0  0  0  0  0  0  0  0  0  0  0  0
    0.0043    0.1849    0.0000 N    0  0  0  0  0  0  0  0  0  0  0  0
   -0.7102   -0.2276    0.0000 C    0  0  0  0  0  0  0  0  0  0  0  0
   -1.4246    0.1849    0.0000 C    0  0  0  0  0  0  0  0  0  0  0  0
   -2.2093   -0.0701    0.0000 N    0  0  0  0  0  0  0  0  0  0  0  0
   -2.6942    0.5974    0.0000 C    0  0  0  0  0  0  0  0  0  0  0  0
   -2.2093    1.2648    0.0000 N    0  0  0  0  0  0  0  0  0  0  0  0
    0.0043    1.0099    0.0000 C    0  0  0  0  0  0  0  0  0  0  0  0
  1  3  2  0  0  0  0
  1  5  1  0  0  0  0
  1 10  1  0  0  0  0
  2 10  2  0  0  0  0
  2 12  1  0  0  0  0
  3  8  1  0  0  0  0
  3 11  1  0  0  0  0
  4  6  1  0  0  0  0
  4 15  2  0  0  0  0
  4 18  1  0  0  0  0
  5  9  1  0  0  0  0
  6 19  1  0  0  0  0
  7  8  1  0  0  0  0
  8  9  2  0  0  0  0
 11 12  2  0  0  0  0
 11 13  1  0  0  0  0
 13 14  1  0  0  0  0
 13 19  1  0  0  0  0
 14 15  1  0  0  0  0
 15 16  1  0  0  0  0
 16 17  2  0  0  0  0
 17 18  1  0  0  0  0
M  END
> <DRUGBANK_ID>
DB07585

> <DRUG_GROUPS>
experimental

> <GENERIC_NAME>
5-(5-chloro-7H-pyrrolo[2,3-d]pyrimidin-4-yl)-4,5,6,7-tetrahydro-1H-imidazo[4,5-c]pyridine

> <CHEMICAL_FORMULA>
C12H11ClN6

> <MOLECULAR_WEIGHT>
274.709

> <EXACT_MASS>
274.073372089

> <IUPAC_NAME>
5-chloro-4-{1H,4H,5H,6H,7H-imidazo[4,5-c]pyridin-5-yl}-7H-pyrrolo[2,3-d]pyrimidine

> <IUPAC_TRADITIONAL_NAME>
5-chloro-4-{1H,4H,6H,7H-imidazo[4,5-c]pyridin-5-yl}-7H-pyrrolo[2,3-d]pyrimidine

> <INCHI_IDENTIFIER>
InChI=1S/C12H11ClN6/c13-7-3-14-11-10(7)12(18-6-17-11)19-2-1-8-9(4-19)16-5-15-8/h3,5-6H,1-2,4H2,(H,15,16)(H,14,17,18)

> <INCHI_KEY>
InChIKey=YFFJXGRXFASBDL-UHFFFAOYSA-N

> <SMILES>
ClC1=CNC2=C1C(=NC=N2)N1CCC2=C(C1)N=CN2

> <JCHEM_ACCEPTOR_COUNT>
4

> <JCHEM_DONOR_COUNT>
2

> <JCHEM_ACIDIC_PKA>
12.01

> <JCHEM_BASIC_PKA>
6.83

> <JCHEM_PHYSIOLOGICAL_CHARGE>
0

> <ALOGPS_LOGP>
1.62

> <JCHEM_LOGP>
1.24

> <ALOGPS_LOGS>
-3.4

> <JCHEM_POLARIZABILITY>
26.86

> <JCHEM_POLAR_SURFACE_AREA>
73.49

> <JCHEM_REFRACTIVITY>
73.65

> <JCHEM_ROTATABLE_BOND_COUNT>
1

> <ALOGPS_SOLUBILITY>
1.17e-01 g/l __ 

$$$$
