GB4
  Mrv0541 02241213402D          

 14 14  0  0  0  0            999 V2000
    1.8247    0.3391    0.0000 O    0  0  0  0  0  0  0  0  0  0  0  0
    1.1102    0.7516    0.0000 C    0  0  0  0  0  0  0  0  0  0  0  0
    1.1102    1.5766    0.0000 N    0  0  0  0  0  0  0  0  0  0  0  0
    1.8247    1.9891    0.0000 O    0  0  0  0  0  0  0  0  0  0  0  0
    0.3957    0.3391    0.0000 C    0  0  0  0  0  0  0  0  0  0  0  0
    0.3957   -0.4859    0.0000 C    0  0  0  0  0  0  0  0  0  0  0  0
   -0.3187   -0.8984    0.0000 C    0  0  0  0  0  0  0  0  0  0  0  0
   -0.3187   -1.7234    0.0000 C    0  0  0  0  0  0  0  0  0  0  0  0
    0.3957   -2.1359    0.0000 Cl   0  0  0  0  0  0  0  0  0  0  0  0
   -1.0332   -2.1359    0.0000 C    0  0  0  0  0  0  0  0  0  0  0  0
   -1.0332   -0.4859    0.0000 C    0  0  0  0  0  0  0  0  0  0  0  0
   -1.7477   -0.8984    0.0000 C    0  0  0  0  0  0  0  0  0  0  0  0
   -1.7477   -1.7234    0.0000 C    0  0  0  0  0  0  0  0  0  0  0  0
   -2.4621   -2.1359    0.0000 Cl   0  0  0  0  0  0  0  0  0  0  0  0
  1  2  2  0  0  0  0
  2  5  1  0  0  0  0
  2  3  1  0  0  0  0
  3  4  1  0  0  0  0
  5  6  2  0  0  0  0
  6  7  1  0  0  0  0
  7  8  1  0  0  0  0
  7 11  2  0  0  0  0
  8  9  1  0  0  0  0
  8 10  2  0  0  0  0
 10 13  1  0  0  0  0
 11 12  1  0  0  0  0
 12 13  2  0  0  0  0
 13 14  1  0  0  0  0
M  END
> <DRUGBANK_ID>
DB07818

> <DRUG_GROUPS>
experimental

> <GENERIC_NAME>
(2E)-3-(2,4-DICHLOROPHENYL)-N-HYDROXYACRYLAMIDE

> <CHEMICAL_FORMULA>
C9H7Cl2NO2

> <MOLECULAR_WEIGHT>
232.063

> <EXACT_MASS>
230.985383887

> <IUPAC_NAME>
(2E)-3-(2,4-dichlorophenyl)-N-hydroxyprop-2-enamide

> <IUPAC_TRADITIONAL_NAME>
(2E)-3-(2,4-dichlorophenyl)-N-hydroxyprop-2-enamide

> <INCHI_IDENTIFIER>
InChI=1S/C9H7Cl2NO2/c10-7-3-1-6(8(11)5-7)2-4-9(13)12-14/h1-5,14H,(H,12,13)/b4-2+

> <INCHI_KEY>
InChIKey=LHTLDFWBUPYUDR-DUXPYHPUSA-N

> <SMILES>
ONC(=O)\C=C\C1=CC=C(Cl)C=C1Cl

> <JCHEM_ACCEPTOR_COUNT>
2

> <JCHEM_DONOR_COUNT>
2

> <JCHEM_ACIDIC_PKA>
9.55

> <JCHEM_BASIC_PKA>
-5.1

> <JCHEM_PHYSIOLOGICAL_CHARGE>
0

> <ALOGPS_LOGP>
2.49

> <JCHEM_LOGP>
2.53

> <ALOGPS_LOGS>
-3.6

> <JCHEM_POLARIZABILITY>
21.34

> <JCHEM_POLAR_SURFACE_AREA>
49.33

> <JCHEM_REFRACTIVITY>
56.26

> <JCHEM_ROTATABLE_BOND_COUNT>
2

> <ALOGPS_SOLUBILITY>
5.33e-02 g/l __ 

$$$$
