BPI
  Mrv0541 02241213272D          

 24 27  0  0  0  0            999 V2000
    0.3336    0.7118    0.0000 C   0  0  0  0  0  0  0  0  0  0  0  0
    1.0480    1.1243    0.0000 C   0  0  1  0  0  0  0  0  0  0  0  0
    1.0480    1.9493    0.0000 O   0  0  0  0  0  0  0  0  0  0  0  0
    1.7625    0.7118    0.0000 C   0  0  1  0  0  0  0  0  0  0  0  0
    2.4770    1.1243    0.0000 O   0  0  0  0  0  0  0  0  0  0  0  0
    1.7625   -0.1132    0.0000 C   0  0  2  0  0  0  0  0  0  0  0  0
    2.4770   -0.5257    0.0000 O   0  0  0  0  0  0  0  0  0  0  0  0
    1.0480   -1.3507    0.0000 C   0  0  0  0  0  0  0  0  0  0  0  0
    0.3336   -1.7632    0.0000 C   0  0  0  0  0  0  0  0  0  0  0  0
   -1.0954   -1.7632    0.0000 C   0  0  0  0  0  0  0  0  0  0  0  0
   -1.8099   -1.3507    0.0000 C   0  0  0  0  0  0  0  0  0  0  0  0
   -2.5243   -0.1132    0.0000 C   0  0  0  0  0  0  0  0  0  0  0  0
   -2.5243    0.7118    0.0000 C   0  0  0  0  0  0  0  0  0  0  0  0
   -1.8099    1.1243    0.0000 C   0  0  0  0  0  0  0  0  0  0  0  0
   -1.0954    0.7118    0.0000 C   0  0  0  0  0  0  0  0  0  0  0  0
    0.3336   -0.1132    0.0000 C   0  0  0  0  0  0  0  0  0  0  0  0
    1.0480   -0.5257    0.0000 C   0  0  0  0  0  0  0  0  0  0  0  0
   -0.3809   -1.3507    0.0000 C   0  0  0  0  0  0  0  0  0  0  0  0
   -0.3809   -0.5257    0.0000 C   0  0  0  0  0  0  0  0  0  0  0  0
   -1.0954   -0.1132    0.0000 C   0  0  0  0  0  0  0  0  0  0  0  0
   -1.8099   -0.5257    0.0000 C   0  0  0  0  0  0  0  0  0  0  0  0
    0.5423    1.4163    0.0000 H   0  0  0  0  0  0  0  0  0  0  0  0
    1.7625    1.2957    0.0000 H   0  0  0  0  0  0  0  0  0  0  0  0
    2.2682    0.1788    0.0000 H   0  0  0  0  0  0  0  0  0  0  0  0
  1  2  1  0  0  0  0
  1 16  1  0  0  0  0
  2  3  1  1  0  0  0
  2  4  1  0  0  0  0
  2 22  1  6  0  0  0
  4  5  1  1  0  0  0
  4  6  1  0  0  0  0
  4 23  1  6  0  0  0
  6  7  1  6  0  0  0
  6 17  1  0  0  0  0
  6 24  1  1  0  0  0
  8  9  2  0  0  0  0
  8 17  1  0  0  0  0
  9 18  1  0  0  0  0
 10 11  2  0  0  0  0
 10 18  1  0  0  0  0
 11 21  1  0  0  0  0
 12 13  2  0  0  0  0
 12 21  1  0  0  0  0
 13 14  1  0  0  0  0
 14 15  2  0  0  0  0
 15 20  1  0  0  0  0
 16 17  2  0  0  0  0
 16 19  1  0  0  0  0
 18 19  2  0  0  0  0
 19 20  1  0  0  0  0
 20 21  2  0  0  0  0
M  END
> <DRUGBANK_ID>
DB07479

> <DRUG_GROUPS>
experimental

> <GENERIC_NAME>
(1S)-1,2,3,4-TETRAHYDRO-BENZO[C]PHENANTHRENE-2,3,4-TRIOL

> <CHEMICAL_FORMULA>
C18H16O3

> <MOLECULAR_WEIGHT>
280.3178

> <EXACT_MASS>
280.109944378

> <IUPAC_NAME>
(4R,5R,6R)-tetracyclo[8.8.0.0^{2,7}.0^{13,18}]octadeca-1,7,9,11,13,15,17-heptaene-4,5,6-triol

> <IUPAC_TRADITIONAL_NAME>
(4R,5R,6R)-tetracyclo[8.8.0.0^{2,7}.0^{13,18}]octadeca-1,7,9,11,13,15,17-heptaene-4,5,6-triol

> <INCHI_IDENTIFIER>
InChI=1S/C18H16O3/c19-15-9-14-13(17(20)18(15)21)8-7-11-6-5-10-3-1-2-4-12(10)16(11)14/h1-8,15,17-21H,9H2/t15-,17-,18-/m1/s1

> <INCHI_KEY>
InChIKey=WCUHTHVUZQCBTI-KBAYOESNSA-N

> <SMILES>
[H][C@@]1(O)CC2=C(C=CC3=C2C2=C(C=CC=C2)C=C3)[C@@]([H])(O)[C@]1([H])O

> <JCHEM_ACCEPTOR_COUNT>
3

> <JCHEM_DONOR_COUNT>
3

> <JCHEM_ACIDIC_PKA>
12.88

> <JCHEM_BASIC_PKA>
-3.3

> <JCHEM_PHYSIOLOGICAL_CHARGE>
0

> <ALOGPS_LOGP>
1.95

> <JCHEM_LOGP>
2.02

> <ALOGPS_LOGS>
-3.6

> <JCHEM_POLARIZABILITY>
30.35

> <JCHEM_POLAR_SURFACE_AREA>
60.69

> <JCHEM_REFRACTIVITY>
80.68

> <JCHEM_ROTATABLE_BOND_COUNT>
0

> <ALOGPS_SOLUBILITY>
6.74e-02 g/l __ 

$$$$
