FAL
  Mrv0541 02241213372D          

 31 33  0  0  0  0            999 V2000
    1.0625   -1.7807    0.0000 C    0  0  0  0  0  0  0  0  0  0  0  0
   -3.2243    0.6943    0.0000 N    0  0  0  0  0  0  0  0  0  0  0  0
   -3.2243    1.5193    0.0000 C    0  0  0  0  0  0  0  0  0  0  0  0
   -2.5099    0.2818    0.0000 C    0  0  0  0  0  0  0  0  0  0  0  0
   -1.7954    1.5193    0.0000 C    0  0  0  0  0  0  0  0  0  0  0  0
   -2.5099    1.9318    0.0000 C    0  0  0  0  0  0  0  0  0  0  0  0
   -1.7954    0.6943    0.0000 N    0  0  0  0  0  0  0  0  0  0  0  0
   -1.0809    4.4068    0.0000 C    0  0  0  0  0  0  0  0  0  0  0  0
   -0.3665    3.9943    0.0000 C    0  0  0  0  0  0  0  0  0  0  0  0
   -0.3665    3.1693    0.0000 C    0  0  0  0  0  0  0  0  0  0  0  0
   -1.0809    2.7568    0.0000 C    0  0  0  0  0  0  0  0  0  0  0  0
   -1.7954    3.9943    0.0000 C    0  0  0  0  0  0  0  0  0  0  0  0
   -1.0809   -2.1932    0.0000 C    0  0  0  0  0  0  0  0  0  0  0  0
   -1.7954   -1.7807    0.0000 C    0  0  0  0  0  0  0  0  0  0  0  0
   -1.7954    3.1693    0.0000 C    0  0  0  0  0  0  0  0  0  0  0  0
   -1.7954   -0.9557    0.0000 C    0  0  0  0  0  0  0  0  0  0  0  0
   -0.3665   -1.7807    0.0000 C    0  0  0  0  0  0  0  0  0  0  0  0
   -0.3665   -0.9557    0.0000 C    0  0  0  0  0  0  0  0  0  0  0  0
   -1.0809   -0.5432    0.0000 C    0  0  0  0  0  0  0  0  0  0  0  0
    0.3480   -2.1932    0.0000 O    0  0  0  0  0  0  0  0  0  0  0  0
   -1.0809    1.9318    0.0000 N    0  0  0  0  0  0  0  0  0  0  0  0
   -2.5099   -0.5432    0.0000 N    0  0  0  0  0  0  0  0  0  0  0  0
    0.3480    2.7568    0.0000 Cl   0  0  0  0  0  0  0  0  0  0  0  0
   -2.5099    4.4068    0.0000 Cl   0  0  0  0  0  0  0  0  0  0  0  0
    1.7770   -2.1932    0.0000 C    0  0  1  0  0  0  0  0  0  0  0  0
    2.4914   -1.7807    0.0000 C    0  0  0  0  0  0  0  0  0  0  0  0
    3.2059   -2.1932    0.0000 N    0  0  0  0  0  0  0  0  0  0  0  0
    3.9204   -1.7807    0.0000 C    0  0  0  0  0  0  0  0  0  0  0  0
    3.2059   -3.0182    0.0000 C    0  0  0  0  0  0  0  0  0  0  0  0
    1.7770   -3.0182    0.0000 O    0  0  0  0  0  0  0  0  0  0  0  0
    1.7770   -1.6093    0.0000 H    0  0  0  0  0  0  0  0  0  0  0  0
  1 20  1  0  0  0  0
  1 25  1  0  0  0  0
  2  3  2  0  0  0  0
  2  4  1  0  0  0  0
  3  6  1  0  0  0  0
  4  7  2  0  0  0  0
  4 22  1  0  0  0  0
  5  6  2  0  0  0  0
  5  7  1  0  0  0  0
  5 21  1  0  0  0  0
  8  9  2  0  0  0  0
  8 12  1  0  0  0  0
  9 10  1  0  0  0  0
 10 11  2  0  0  0  0
 10 23  1  0  0  0  0
 11 15  1  0  0  0  0
 11 21  1  0  0  0  0
 12 15  2  0  0  0  0
 12 24  1  0  0  0  0
 13 14  2  0  0  0  0
 13 17  1  0  0  0  0
 14 16  1  0  0  0  0
 16 19  2  0  0  0  0
 16 22  1  0  0  0  0
 17 18  2  0  0  0  0
 17 20  1  0  0  0  0
 18 19  1  0  0  0  0
 25 26  1  0  0  0  0
 25 30  1  6  0  0  0
 25 31  1  6  0  0  0
 26 27  1  0  0  0  0
 27 28  1  0  0  0  0
 27 29  1  0  0  0  0
M  END
> <DRUGBANK_ID>
DB07750

> <DRUG_GROUPS>
experimental

> <GENERIC_NAME>
(2R)-1-[4-({4-[(2,5-DICHLOROPHENYL)AMINO]PYRIMIDIN-2-YL}AMINO)PHENOXY]-3-(DIMETHYLAMINO)PROPAN-2-OL

> <CHEMICAL_FORMULA>
C21H23Cl2N5O2

> <MOLECULAR_WEIGHT>
448.346

> <EXACT_MASS>
447.122880419

> <IUPAC_NAME>
4-N-(2,5-dichlorophenyl)-2-N-{4-[(2R)-3-(dimethylamino)-2-hydroxypropoxy]phenyl}pyrimidine-2,4-diamine

> <IUPAC_TRADITIONAL_NAME>
4-N-(2,5-dichlorophenyl)-2-N-{4-[(2R)-3-(dimethylamino)-2-hydroxypropoxy]phenyl}pyrimidine-2,4-diamine

> <INCHI_IDENTIFIER>
InChI=1S/C21H23Cl2N5O2/c1-28(2)12-16(29)13-30-17-6-4-15(5-7-17)25-21-24-10-9-20(27-21)26-19-11-14(22)3-8-18(19)23/h3-11,16,29H,12-13H2,1-2H3,(H2,24,25,26,27)/t16-/m1/s1

> <INCHI_KEY>
InChIKey=GNLAGGCSJGJECE-MRXNPFEDSA-N

> <SMILES>
[H][C@](O)(COC1=CC=C(NC2=NC(NC3=C(Cl)C=CC(Cl)=C3)=CC=N2)C=C1)CN(C)C

> <JCHEM_ACCEPTOR_COUNT>
7

> <JCHEM_DONOR_COUNT>
3

> <JCHEM_ACIDIC_PKA>
13.61

> <JCHEM_BASIC_PKA>
8.7

> <JCHEM_PHYSIOLOGICAL_CHARGE>
1

> <ALOGPS_LOGP>
4.38

> <JCHEM_LOGP>
4.64

> <ALOGPS_LOGS>
-4.3

> <JCHEM_POLARIZABILITY>
47.32

> <JCHEM_POLAR_SURFACE_AREA>
82.54

> <JCHEM_REFRACTIVITY>
120.01

> <JCHEM_ROTATABLE_BOND_COUNT>
9

> <ALOGPS_SOLUBILITY>
2.00e-02 g/l __ 

$$$$
