FC3
  Mrv0541 02241213382D          

 18 19  0  0  0  0            999 V2000
    0.6727   -1.0068    0.0000 O   0  0  0  0  0  0  0  0  0  0  0  0
    0.4177   -1.7914    0.0000 C   0  0  0  0  0  0  0  0  0  0  0  0
    0.9026   -2.4589    0.0000 C   0  0  0  0  0  0  0  0  0  0  0  0
    0.5671   -3.2126    0.0000 O   0  0  0  0  0  0  0  0  0  0  0  0
   -0.4073   -1.7914    0.0000 C   0  0  0  0  0  0  0  0  0  0  0  0
   -0.6622   -1.0068    0.0000 C   0  0  0  0  0  0  0  0  0  0  0  0
    0.0052   -0.5219    0.0000 C   0  0  0  0  0  0  0  0  0  0  0  0
    1.7231   -2.3726    0.0000 O   0  0  0  0  0  0  0  0  0  0  0  0
    0.0052    0.3031    0.0000 C   0  0  0  0  0  0  0  0  0  0  0  0
   -0.7092    0.7156    0.0000 C   0  0  0  0  0  0  0  0  0  0  0  0
   -0.7092    1.5406    0.0000 C   0  0  0  0  0  0  0  0  0  0  0  0
    0.0052    1.9531    0.0000 C   0  0  0  0  0  0  0  0  0  0  0  0
    0.7197    1.5406    0.0000 C   0  0  0  0  0  0  0  0  0  0  0  0
    0.7197    0.7156    0.0000 C   0  0  0  0  0  0  0  0  0  0  0  0
   -1.4237    0.3031    0.0000 C   0  0  0  0  0  0  0  0  0  0  0  0
   -2.1382   -0.1094    0.0000 F   0  0  0  0  0  0  0  0  0  0  0  0
   -1.8362    1.0176    0.0000 F   0  0  0  0  0  0  0  0  0  0  0  0
   -1.0112   -0.4114    0.0000 F   0  0  0  0  0  0  0  0  0  0  0  0
  1  2  1  0  0  0  0
  1  7  1  0  0  0  0
  2  3  1  0  0  0  0
  2  5  2  0  0  0  0
  3  4  1  0  0  0  0
  3  8  2  0  0  0  0
  5  6  1  0  0  0  0
  6  7  2  0  0  0  0
  7  9  1  0  0  0  0
  9 10  1  0  0  0  0
  9 14  2  0  0  0  0
 10 11  2  0  0  0  0
 10 15  1  0  0  0  0
 11 12  1  0  0  0  0
 12 13  2  0  0  0  0
 13 14  1  0  0  0  0
 15 16  1  0  0  0  0
 15 17  1  0  0  0  0
 15 18  1  0  0  0  0
M  END
> <DRUGBANK_ID>
DB07759

> <DRUG_GROUPS>
experimental

> <GENERIC_NAME>
5-[2-(TRIFLUOROMETHYL)PHENYL]-2-FUROIC ACID

> <CHEMICAL_FORMULA>
C12H7F3O3

> <MOLECULAR_WEIGHT>
256.1774

> <EXACT_MASS>
256.034728705

> <IUPAC_NAME>
5-[2-(trifluoromethyl)phenyl]furan-2-carboxylic acid

> <IUPAC_TRADITIONAL_NAME>
5-[2-(trifluoromethyl)phenyl]furan-2-carboxylic acid

> <INCHI_IDENTIFIER>
InChI=1S/C12H7F3O3/c13-12(14,15)8-4-2-1-3-7(8)9-5-6-10(18-9)11(16)17/h1-6H,(H,16,17)

> <INCHI_KEY>
InChIKey=IJPNRBZMRINMMR-UHFFFAOYSA-N

> <SMILES>
OC(=O)C1=CC=C(O1)C1=CC=CC=C1C(F)(F)F

> <JCHEM_ACCEPTOR_COUNT>
2

> <JCHEM_DONOR_COUNT>
1

> <JCHEM_ACIDIC_PKA>
3.13

> <JCHEM_BASIC_PKA>
-4.7

> <JCHEM_PHYSIOLOGICAL_CHARGE>
-1

> <ALOGPS_LOGP>
3.34

> <JCHEM_LOGP>
3.14

> <ALOGPS_LOGS>
-3.7

> <JCHEM_POLARIZABILITY>
21.35

> <JCHEM_POLAR_SURFACE_AREA>
50.44

> <JCHEM_REFRACTIVITY>
56.69

> <JCHEM_ROTATABLE_BOND_COUNT>
3

> <ALOGPS_SOLUBILITY>
5.04e-02 g/l __ 

$$$$
