IAA
  Mrv0541 02241213452D          

 25 28  0  0  0  0            999 V2000
    0.8057   -3.1512    0.0000 O   0  0  0  0  0  0  0  0  0  0  0  0
    1.0607   -2.3666    0.0000 C   0  0  0  0  0  0  0  0  0  0  0  0
    1.8676   -2.1951    0.0000 O   0  0  0  0  0  0  0  0  0  0  0  0
    0.5086   -1.7535    0.0000 C   0  0  0  0  0  0  0  0  0  0  0  0
    0.7636   -0.9689    0.0000 O   0  0  0  0  0  0  0  0  0  0  0  0
    0.2115   -0.3558    0.0000 N   0  0  0  0  0  0  0  0  0  0  0  0
    0.4665    0.4288    0.0000 C   0  0  0  0  0  0  0  0  0  0  0  0
   -0.0184    1.0962    0.0000 C   0  0  0  0  0  0  0  0  0  0  0  0
   -0.8434    1.0962    0.0000 C   0  0  0  0  0  0  0  0  0  0  0  0
   -1.3284    1.7637    0.0000 C   0  0  0  0  0  0  0  0  0  0  0  0
   -1.0734    2.5483    0.0000 O   0  0  0  0  0  0  0  0  0  0  0  0
   -2.1130    1.5087    0.0000 N   0  0  0  0  0  0  0  0  0  0  0  0
   -2.1130    0.6837    0.0000 C   0  0  0  0  0  0  0  0  0  0  0  0
   -2.7261    0.1317    0.0000 C   0  0  0  0  0  0  0  0  0  0  0  0
   -2.5546   -0.6753    0.0000 C   0  0  0  0  0  0  0  0  0  0  0  0
   -1.7699   -0.9302    0.0000 C   0  0  0  0  0  0  0  0  0  0  0  0
   -1.1568   -0.3782    0.0000 C   0  0  0  0  0  0  0  0  0  0  0  0
   -1.3284    0.4288    0.0000 C   0  0  0  0  0  0  0  0  0  0  0  0
    0.4665    1.7637    0.0000 N   0  0  0  0  0  0  0  0  0  0  0  0
    1.2511    1.5087    0.0000 C   0  0  0  0  0  0  0  0  0  0  0  0
    1.9656    1.9212    0.0000 C   0  0  0  0  0  0  0  0  0  0  0  0
    2.6800    1.5087    0.0000 C   0  0  0  0  0  0  0  0  0  0  0  0
    2.6800    0.6837    0.0000 C   0  0  0  0  0  0  0  0  0  0  0  0
    1.9656    0.2712    0.0000 C   0  0  0  0  0  0  0  0  0  0  0  0
    1.2511    0.6837    0.0000 C   0  0  0  0  0  0  0  0  0  0  0  0
  1  2  1  0  0  0  0
  2  3  2  0  0  0  0
  2  4  1  0  0  0  0
  4  5  1  0  0  0  0
  5  6  1  0  0  0  0
  6  7  2  0  0  0  0
  7  8  1  0  0  0  0
  7 25  1  0  0  0  0
  8  9  2  0  0  0  0
  8 19  1  0  0  0  0
  9 10  1  0  0  0  0
  9 18  1  0  0  0  0
 10 11  2  0  0  0  0
 10 12  1  0  0  0  0
 12 13  2  0  0  0  0
 13 14  1  0  0  0  0
 13 18  1  0  0  0  0
 14 15  1  0  0  0  0
 15 16  2  0  0  0  0
 16 17  1  0  0  0  0
 17 18  2  0  0  0  0
 19 20  2  0  0  0  0
 20 21  1  0  0  0  0
 20 25  1  0  0  0  0
 21 22  1  0  0  0  0
 22 23  2  0  0  0  0
 23 24  1  0  0  0  0
 24 25  2  0  0  0  0
M  END
> <DRUGBANK_ID>
DB07949

> <DRUG_GROUPS>
experimental

> <GENERIC_NAME>
({[(3E)-2'-OXO-2',7'-DIHYDRO-2,3'-BIINDOL-3(7H)-YLIDENE]AMINO}OXY)ACETIC ACID

> <CHEMICAL_FORMULA>
C18H13N3O4

> <MOLECULAR_WEIGHT>
335.3135

> <EXACT_MASS>
335.090605919

> <IUPAC_NAME>
2-({[(3E)-2-(2-oxo-3,7-dihydro-2H-indol-3-ylidene)-3,7-dihydro-2H-indol-3-ylidene]amino}oxy)acetic acid

> <IUPAC_TRADITIONAL_NAME>
({[(3E)-2-(2-oxo-7H-indol-3-ylidene)-7H-indol-3-ylidene]amino}oxy)acetic acid

> <INCHI_IDENTIFIER>
InChI=1S/C18H13N3O4/c22-14(23)9-25-21-16-11-6-2-4-8-13(11)19-17(16)15-10-5-1-3-7-12(10)20-18(15)24/h1-6H,7-9H2,(H,22,23)/b17-15-,21-16+

> <INCHI_KEY>
InChIKey=BFQRPTKOSYMPOL-LALPNIDTSA-N

> <SMILES>
OC(=O)CO\N=C1/C2=CC=CCC2=N/C/1=C1\C(=O)N=C2CC=CC=C12

> <JCHEM_ACCEPTOR_COUNT>
7

> <JCHEM_DONOR_COUNT>
1

> <JCHEM_ACIDIC_PKA>
3.47

> <JCHEM_BASIC_PKA>
1.97

> <JCHEM_PHYSIOLOGICAL_CHARGE>
-1

> <ALOGPS_LOGP>
2.6

> <JCHEM_LOGP>
0.96

> <ALOGPS_LOGS>
-3.9

> <JCHEM_POLARIZABILITY>
34.43

> <JCHEM_POLAR_SURFACE_AREA>
100.68

> <JCHEM_REFRACTIVITY>
94.04

> <JCHEM_ROTATABLE_BOND_COUNT>
3

> <ALOGPS_SOLUBILITY>
4.42e-02 g/l __ 

$$$$
