DIN
  Mrv0541 02241213342D          

 12 13  0  0  0  0            999 V2000
    0.0674    0.3997    0.0000 C   0  0  0  0  0  0  0  0  0  0  0  0
   -0.6471    0.8122    0.0000 C   0  0  0  0  0  0  0  0  0  0  0  0
   -1.3616    0.3997    0.0000 C   0  0  0  0  0  0  0  0  0  0  0  0
   -1.3616   -0.4253    0.0000 C   0  0  0  0  0  0  0  0  0  0  0  0
   -0.6471   -0.8378    0.0000 C   0  0  0  0  0  0  0  0  0  0  0  0
    0.7818   -0.8378    0.0000 C   0  0  0  0  0  0  0  0  0  0  0  0
    1.4963    0.3997    0.0000 C   0  0  0  0  0  0  0  0  0  0  0  0
    0.7818    0.8122    0.0000 C   0  0  0  0  0  0  0  0  0  0  0  0
    0.7818   -1.6628    0.0000 O   0  0  0  0  0  0  0  0  0  0  0  0
   -2.0760    0.8122    0.0000 O   0  0  0  0  0  0  0  0  0  0  0  0
    1.4963   -0.4253    0.0000 C   0  0  0  0  0  0  0  0  0  0  0  0
    0.0674   -0.4253    0.0000 C   0  0  0  0  0  0  0  0  0  0  0  0
  1  2  2  0  0  0  0
  1  8  1  0  0  0  0
  1 12  1  0  0  0  0
  2  3  1  0  0  0  0
  3  4  2  0  0  0  0
  3 10  1  0  0  0  0
  4  5  1  0  0  0  0
  5 12  2  0  0  0  0
  6  9  1  0  0  0  0
  6 11  2  0  0  0  0
  6 12  1  0  0  0  0
  7  8  2  0  0  0  0
  7 11  1  0  0  0  0
M  END
> <DRUGBANK_ID>
DB07661

> <DRUG_GROUPS>
experimental

> <GENERIC_NAME>
1,6-DIHYDROXY NAPHTHALENE

> <CHEMICAL_FORMULA>
C10H8O2

> <MOLECULAR_WEIGHT>
160.1693

> <EXACT_MASS>
160.0524295

> <IUPAC_NAME>
naphthalene-1,6-diol

> <IUPAC_TRADITIONAL_NAME>
1,6-naphthalenediol

> <INCHI_IDENTIFIER>
InChI=1S/C10H8O2/c11-8-4-5-9-7(6-8)2-1-3-10(9)12/h1-6,11-12H

> <INCHI_KEY>
InChIKey=FZZQNEVOYIYFPF-UHFFFAOYSA-N

> <SMILES>
OC1=CC=C2C(O)=CC=CC2=C1

> <JCHEM_ACCEPTOR_COUNT>
2

> <JCHEM_DONOR_COUNT>
2

> <JCHEM_ACIDIC_PKA>
9.44

> <JCHEM_BASIC_PKA>
-5.5

> <JCHEM_PHYSIOLOGICAL_CHARGE>
0

> <ALOGPS_LOGP>
1.99

> <JCHEM_LOGP>
2.36

> <ALOGPS_LOGS>
-2.4

> <JCHEM_POLARIZABILITY>
16.45

> <JCHEM_POLAR_SURFACE_AREA>
40.46

> <JCHEM_REFRACTIVITY>
46.47

> <JCHEM_ROTATABLE_BOND_COUNT>
0

> <ALOGPS_SOLUBILITY>
6.64e-01 g/l __ 

$$$$
