GA4
  Mrv0541 02241213402D          

 29 33  0  0  0  0            999 V2000
   -1.6646    0.0690    0.0000 C   0  0  0  0  0  0  0  0  0  0  0  0
   -2.2023    0.4649    0.0000 C   0  0  0  0  0  0  0  0  0  0  0  0
   -2.0176   -0.3391    0.0000 C   0  0  2  0  0  0  0  0  0  0  0  0
   -2.5045   -1.0001    0.0000 O   0  0  0  0  0  0  0  0  0  0  0  0
   -1.0958   -0.2699    0.0000 C   0  0  1  0  0  0  0  0  0  0  0  0
   -0.5134   -0.6744    0.0000 C   0  0  1  0  0  0  0  0  0  0  0  0
    0.3118   -0.7457    0.0000 C   0  0  2  0  0  0  0  0  0  0  0  0
    0.7188   -1.4588    0.0000 C   0  0  0  0  0  0  0  0  0  0  0  0
    1.5398   -1.4628    0.0000 O   0  0  0  0  0  0  0  0  0  0  0  0
    0.3047   -2.1677    0.0000 O   0  0  0  0  0  0  0  0  0  0  0  0
    0.6747    0.0110    0.0000 C   0  0  2  0  0  0  0  0  0  0  0  0
    0.0008    0.5798    0.0000 C   0  0  2  0  0  0  0  0  0  0  0  0
   -0.6993    0.1253    0.0000 C   0  0  2  0  0  0  0  0  0  0  0  0
    0.1301    1.4441    0.0000 C   0  0  0  0  0  0  0  0  0  0  0  0
    0.9471    1.7037    0.0000 C   0  0  0  0  0  0  0  0  0  0  0  0
    1.5875    1.1295    0.0000 C   0  0  2  0  0  0  0  0  0  0  0  0
    1.0882    0.5836    0.0000 C   0  0  0  0  0  0  0  0  0  0  0  0
    1.5237   -0.2587    0.0000 C   0  0  0  0  0  0  0  0  0  0  0  0
    2.0702    0.4219    0.0000 C   0  0  0  0  0  0  0  0  0  0  0  0
    2.8905    0.3900    0.0000 C   0  0  0  0  0  0  0  0  0  0  0  0
   -0.8332   -1.0478    0.0000 C   0  0  0  0  0  0  0  0  0  0  0  0
   -0.8185    0.4527    0.0000 C   0  0  0  0  0  0  0  0  0  0  0  0
   -1.4637    0.9602    0.0000 O   0  0  0  0  0  0  0  0  0  0  0  0
   -0.2241    0.8631    0.0000 O   0  0  0  0  0  0  0  0  0  0  0  0
   -2.5865   -0.2211    0.0000 H   0  0  0  0  0  0  0  0  0  0  0  0
   -0.7108   -1.2209    0.0000 H   0  0  0  0  0  0  0  0  0  0  0  0
   -0.0014   -1.2352    0.0000 H   0  0  0  0  0  0  0  0  0  0  0  0
   -0.4878    0.8942    0.0000 H   0  0  0  0  0  0  0  0  0  0  0  0
    2.0247    1.5124    0.0000 H   0  0  0  0  0  0  0  0  0  0  0  0
  1  2  1  0  0  0  0
  1 13  1  0  0  0  0
  2  3  1  0  0  0  0
  3  4  1  1  0  0  0
  3  5  1  0  0  0  0
  3 25  1  6  0  0  0
  5  6  1  0  0  0  0
  5 21  1  6  0  0  0
  5 22  1  0  0  0  0
  6  7  1  0  0  0  0
  6 13  1  0  0  0  0
  6 26  1  1  0  0  0
  7  8  1  1  0  0  0
  7 11  1  0  0  0  0
  7 27  1  6  0  0  0
  8  9  2  0  0  0  0
  8 10  1  0  0  0  0
 11 12  1  0  0  0  0
 11 17  1  6  0  0  0
 11 18  1  0  0  0  0
 12 13  1  0  0  0  0
 12 14  1  0  0  0  0
 12 28  1  1  0  0  0
 13 24  1  6  0  0  0
 14 15  1  0  0  0  0
 15 16  1  0  0  0  0
 16 17  1  0  0  0  0
 16 19  1  0  0  0  0
 16 29  1  6  0  0  0
 18 19  1  0  0  0  0
 19 20  2  0  0  0  0
 22 23  2  0  0  0  0
 22 24  1  0  0  0  0
M  END
> <DRUGBANK_ID>
DB07815

> <DRUG_GROUPS>
experimental

> <GENERIC_NAME>
GIBBERELLIN A4

> <CHEMICAL_FORMULA>
C19H24O5

> <MOLECULAR_WEIGHT>
332.3909

> <EXACT_MASS>
332.162373878

> <IUPAC_NAME>
(1R,2R,5R,8R,9S,10R,11S,12S)-12-hydroxy-11-methyl-6-methylidene-16-oxo-15-oxapentacyclo[9.3.2.1^{5,8}.0^{1,10}.0^{2,8}]heptadecane-9-carboxylic acid

> <IUPAC_TRADITIONAL_NAME>
(1R,2R,5R,8R,9S,10R,11S,12S)-12-hydroxy-11-methyl-6-methylidene-16-oxo-15-oxapentacyclo[9.3.2.1^{5,8}.0^{1,10}.0^{2,8}]heptadecane-9-carboxylic acid

> <INCHI_IDENTIFIER>
InChI=1S/C19H24O5/c1-9-7-18-8-10(9)3-4-11(18)19-6-5-12(20)17(2,16(23)24-19)14(19)13(18)15(21)22/h10-14,20H,1,3-8H2,2H3,(H,21,22)/t10-,11-,12+,13-,14-,17-,18+,19-/m1/s1

> <INCHI_KEY>
InChIKey=RSQSQJNRHICNNH-NFMPGMCNSA-N

> <SMILES>
[H][C@@]12C[C@@]3(CC1=C)[C@@]([H])(CC2)[C@@]12CC[C@]([H])(O)[C@@](C)(C(=O)O1)[C@@]2([H])[C@]3([H])C(O)=O

> <JCHEM_ACCEPTOR_COUNT>
4

> <JCHEM_DONOR_COUNT>
2

> <JCHEM_ACIDIC_PKA>
4.29

> <JCHEM_BASIC_PKA>
-3

> <JCHEM_PHYSIOLOGICAL_CHARGE>
-1

> <ALOGPS_LOGP>
1.38

> <JCHEM_LOGP>
1.56

> <ALOGPS_LOGS>
-2.4

> <JCHEM_POLARIZABILITY>
34.67

> <JCHEM_POLAR_SURFACE_AREA>
83.83

> <JCHEM_REFRACTIVITY>
84.08

> <JCHEM_ROTATABLE_BOND_COUNT>
1

> <ALOGPS_SOLUBILITY>
1.19e+00 g/l __ 

$$$$
