DT1
  Mrv0541 02241213352D          

 28 31  0  0  0  0            999 V2000
   -4.6049   -3.6865    0.0000 O   0  0  0  0  0  0  0  0  0  0  0  0
   -3.8904   -3.2740    0.0000 S   0  0  0  0  0  0  0  0  0  0  0  0
   -3.4779   -3.9884    0.0000 O   0  0  0  0  0  0  0  0  0  0  0  0
   -4.3029   -2.5595    0.0000 N   0  0  0  0  0  0  0  0  0  0  0  0
   -3.1759   -2.8615    0.0000 C   0  0  0  0  0  0  0  0  0  0  0  0
   -3.1759   -2.0365    0.0000 C   0  0  0  0  0  0  0  0  0  0  0  0
   -2.4615   -3.2740    0.0000 C   0  0  0  0  0  0  0  0  0  0  0  0
   -1.7470   -2.8615    0.0000 C   0  0  0  0  0  0  0  0  0  0  0  0
   -2.4615   -1.6240    0.0000 C   0  0  0  0  0  0  0  0  0  0  0  0
   -1.7470   -2.0365    0.0000 C   0  0  0  0  0  0  0  0  0  0  0  0
   -1.0325   -1.6240    0.0000 N   0  0  0  0  0  0  0  0  0  0  0  0
   -1.0325   -0.7990    0.0000 C   0  0  0  0  0  0  0  0  0  0  0  0
   -1.7470   -0.3865    0.0000 N   0  0  0  0  0  0  0  0  0  0  0  0
   -1.7470    0.4385    0.0000 C   0  0  0  0  0  0  0  0  0  0  0  0
   -1.0325    0.8510    0.0000 N   0  0  0  0  0  0  0  0  0  0  0  0
   -2.5316    0.6935    0.0000 N   0  0  0  0  0  0  0  0  0  0  0  0
   -3.0165    0.0260    0.0000 C   0  0  0  0  0  0  0  0  0  0  0  0
   -2.5316   -0.6414    0.0000 N   0  0  0  0  0  0  0  0  0  0  0  0
   -0.3181   -0.3865    0.0000 C   0  0  0  0  0  0  0  0  0  0  0  0
   -0.3181    0.4385    0.0000 C   0  0  0  0  0  0  0  0  0  0  0  0
    0.3964    1.6760    0.0000 C   0  0  0  0  0  0  0  0  0  0  0  0
    0.3964    0.8510    0.0000 O   0  0  0  0  0  0  0  0  0  0  0  0
    1.1109    2.0885    0.0000 C   0  0  0  0  0  0  0  0  0  0  0  0
    1.1109    2.9135    0.0000 C   0  0  0  0  0  0  0  0  0  0  0  0
    1.8254    3.3260    0.0000 C   0  0  0  0  0  0  0  0  0  0  0  0
    2.5398    2.9135    0.0000 C   0  0  0  0  0  0  0  0  0  0  0  0
    2.5398    2.0885    0.0000 C   0  0  0  0  0  0  0  0  0  0  0  0
    1.8254    1.6760    0.0000 C   0  0  0  0  0  0  0  0  0  0  0  0
  1  2  2  0  0  0  0
  2  3  2  0  0  0  0
  2  4  1  0  0  0  0
  2  5  1  0  0  0  0
  5  6  2  0  0  0  0
  5  7  1  0  0  0  0
  6  9  1  0  0  0  0
  7  8  2  0  0  0  0
  8 10  1  0  0  0  0
  9 10  2  0  0  0  0
 10 11  1  0  0  0  0
 11 12  1  0  0  0  0
 12 13  1  0  0  0  0
 12 19  2  0  0  0  0
 13 14  1  0  0  0  0
 13 18  1  0  0  0  0
 14 15  1  0  0  0  0
 14 16  2  0  0  0  0
 15 20  2  0  0  0  0
 16 17  1  0  0  0  0
 17 18  2  0  0  0  0
 19 20  1  0  0  0  0
 20 22  1  0  0  0  0
 21 22  1  0  0  0  0
 21 23  1  0  0  0  0
 23 24  1  0  0  0  0
 23 28  1  0  0  0  0
 24 25  1  0  0  0  0
 25 26  1  0  0  0  0
 26 27  1  0  0  0  0
 27 28  1  0  0  0  0
M  END
> <DRUGBANK_ID>
DB07685

> <DRUG_GROUPS>
experimental

> <GENERIC_NAME>
4-{[5-(CYCLOHEXYLMETHOXY)[1,2,4]TRIAZOLO[1,5-A]PYRIMIDIN-7-YL]AMINO}BENZENESULFONAMIDE

> <CHEMICAL_FORMULA>
C18H22N6O3S

> <MOLECULAR_WEIGHT>
402.471

> <EXACT_MASS>
402.14740929

> <IUPAC_NAME>
4-{[5-(cyclohexylmethoxy)-[1,2,4]triazolo[1,5-a]pyrimidin-7-yl]amino}benzene-1-sulfonamide

> <IUPAC_TRADITIONAL_NAME>
4-{[5-(cyclohexylmethoxy)-[1,2,4]triazolo[1,5-a]pyrimidin-7-yl]amino}benzenesulfonamide

> <INCHI_IDENTIFIER>
InChI=1S/C18H22N6O3S/c19-28(25,26)15-8-6-14(7-9-15)22-16-10-17(23-18-20-12-21-24(16)18)27-11-13-4-2-1-3-5-13/h6-10,12-13,22H,1-5,11H2,(H2,19,25,26)

> <INCHI_KEY>
InChIKey=NMAZGYDYIYLSLJ-UHFFFAOYSA-N

> <SMILES>
NS(=O)(=O)C1=CC=C(NC2=CC(OCC3CCCCC3)=NC3=NC=NN23)C=C1

> <JCHEM_ACCEPTOR_COUNT>
7

> <JCHEM_DONOR_COUNT>
2

> <JCHEM_ACIDIC_PKA>
10.76

> <JCHEM_BASIC_PKA>
-0.21

> <JCHEM_PHYSIOLOGICAL_CHARGE>
0

> <ALOGPS_LOGP>
3.31

> <JCHEM_LOGP>
2.9

> <ALOGPS_LOGS>
-4.5

> <JCHEM_POLARIZABILITY>
41.37

> <JCHEM_POLAR_SURFACE_AREA>
124.5

> <JCHEM_REFRACTIVITY>
116.02

> <JCHEM_ROTATABLE_BOND_COUNT>
6

> <ALOGPS_SOLUBILITY>
1.31e-02 g/l __ 

$$$$
