DBY
  Mrv0541 02241213332D          

 16 16  0  0  0  0            999 V2000
    0.0327    1.2318    0.0000 N    0  0  0  0  0  0  0  0  0  0  0  0
    0.7472    0.8193    0.0000 C    0  0  2  0  0  0  0  0  0  0  0  0
    1.4617    1.2318    0.0000 C    0  0  0  0  0  0  0  0  0  0  0  0
    1.4617    2.0568    0.0000 O    0  0  0  0  0  0  0  0  0  0  0  0
    0.7472   -0.0057    0.0000 C    0  0  0  0  0  0  0  0  0  0  0  0
    0.0327   -0.4182    0.0000 C    0  0  0  0  0  0  0  0  0  0  0  0
    0.0327   -1.2432    0.0000 C    0  0  0  0  0  0  0  0  0  0  0  0
   -0.6817   -1.6557    0.0000 C    0  0  0  0  0  0  0  0  0  0  0  0
   -0.6817   -0.0057    0.0000 C    0  0  0  0  0  0  0  0  0  0  0  0
   -1.3962   -0.4182    0.0000 C    0  0  0  0  0  0  0  0  0  0  0  0
   -1.3962   -1.2432    0.0000 C    0  0  0  0  0  0  0  0  0  0  0  0
   -2.1107   -1.6557    0.0000 O    0  0  0  0  0  0  0  0  0  0  0  0
   -0.6817   -2.4807    0.0000 Br   0  0  0  0  0  0  0  0  0  0  0  0
   -2.1107   -0.0057    0.0000 Br   0  0  0  0  0  0  0  0  0  0  0  0
    2.1761    0.8193    0.0000 O    0  0  0  0  0  0  0  0  0  0  0  0
    0.7472    1.4032    0.0000 H    0  0  0  0  0  0  0  0  0  0  0  0
  2  1  1  6  0  0  0
  2  3  1  0  0  0  0
  2  5  1  0  0  0  0
  2 16  1  1  0  0  0
  3  4  2  0  0  0  0
  3 15  1  0  0  0  0
  5  6  1  0  0  0  0
  6  7  2  0  0  0  0
  6  9  1  0  0  0  0
  7  8  1  0  0  0  0
  8 11  2  0  0  0  0
  8 13  1  0  0  0  0
  9 10  2  0  0  0  0
 10 11  1  0  0  0  0
 10 14  1  0  0  0  0
 11 12  1  0  0  0  0
M  END
> <DRUGBANK_ID>
DB07637

> <DRUG_GROUPS>
experimental

> <GENERIC_NAME>
3,5 DIBROMOTYROSINE

> <CHEMICAL_FORMULA>
C9H9Br2NO3

> <MOLECULAR_WEIGHT>
338.981

> <EXACT_MASS>
336.894918453

> <IUPAC_NAME>
(2S)-2-amino-3-(3,5-dibromo-4-hydroxyphenyl)propanoic acid

> <IUPAC_TRADITIONAL_NAME>
3,5-dibromotyrosine

> <INCHI_IDENTIFIER>
InChI=1S/C9H9Br2NO3/c10-5-1-4(2-6(11)8(5)13)3-7(12)9(14)15/h1-2,7,13H,3,12H2,(H,14,15)/t7-/m0/s1

> <INCHI_KEY>
InChIKey=COESHZUDRKCEPA-ZETCQYMHSA-N

> <SMILES>
[H][C@](N)(CC1=CC(Br)=C(O)C(Br)=C1)C(O)=O

> <JCHEM_ACCEPTOR_COUNT>
4

> <JCHEM_DONOR_COUNT>
3

> <JCHEM_ACIDIC_PKA>
0.36

> <JCHEM_BASIC_PKA>
9.44

> <JCHEM_PHYSIOLOGICAL_CHARGE>
-1

> <ALOGPS_LOGP>
-0.27

> <JCHEM_LOGP>
0.048

> <ALOGPS_LOGS>
-3.5

> <JCHEM_POLARIZABILITY>
24.94

> <JCHEM_POLAR_SURFACE_AREA>
83.55

> <JCHEM_REFRACTIVITY>
62.34

> <JCHEM_ROTATABLE_BOND_COUNT>
3

> <ALOGPS_SOLUBILITY>
1.21e-01 g/l __ 

$$$$
