AD5
  Mrv0541 02241213222D          

 29 33  0  0  0  0            999 V2000
    4.3794    2.3728    0.0000 C   0  0  0  0  0  0  0  0  0  0  0  0
    3.6649    2.7853    0.0000 C   0  0  0  0  0  0  0  0  0  0  0  0
    3.6649    3.6103    0.0000 C   0  0  0  0  0  0  0  0  0  0  0  0
    4.3794    4.0228    0.0000 C   0  0  0  0  0  0  0  0  0  0  0  0
    5.0938    3.6103    0.0000 C   0  0  0  0  0  0  0  0  0  0  0  0
    5.0938    2.7853    0.0000 C   0  0  0  0  0  0  0  0  0  0  0  0
    5.8083    2.3728    0.0000 N   0  0  0  0  0  0  0  0  0  0  0  0
    5.8083    1.5478    0.0000 C   0  0  0  0  0  0  0  0  0  0  0  0
    6.5228    1.1353    0.0000 N   0  0  0  0  0  0  0  0  0  0  0  0
    5.0938    1.1353    0.0000 C   0  0  0  0  0  0  0  0  0  0  0  0
    4.3092    1.3902    0.0000 N   0  0  0  0  0  0  0  0  0  0  0  0
    3.8243    0.7228    0.0000 C   0  0  0  0  0  0  0  0  0  0  0  0
    4.3092    0.0554    0.0000 N   0  0  0  0  0  0  0  0  0  0  0  0
    5.0938    0.3103    0.0000 C   0  0  0  0  0  0  0  0  0  0  0  0
    5.8083   -0.1022    0.0000 N   0  0  0  0  0  0  0  0  0  0  0  0
    6.5228    0.3103    0.0000 C   0  0  0  0  0  0  0  0  0  0  0  0
    7.2373   -0.1022    0.0000 N   0  0  0  0  0  0  0  0  0  0  0  0
    7.2373   -0.9272    0.0000 C   0  0  0  0  0  0  0  0  0  0  0  0
    7.9517   -1.3397    0.0000 C   0  0  0  0  0  0  0  0  0  0  0  0
    7.9517   -2.1647    0.0000 C   0  0  0  0  0  0  0  0  0  0  0  0
    6.5228   -1.3397    0.0000 C   0  0  0  0  0  0  0  0  0  0  0  0
    6.5228   -2.1647    0.0000 C   0  0  0  0  0  0  0  0  0  0  0  0
    7.2373   -2.5772    0.0000 C   0  0  0  0  0  0  0  0  0  0  0  0
    7.2373   -3.4022    0.0000 N   0  0  0  0  0  0  0  0  0  0  0  0
    7.9517   -3.8147    0.0000 C   0  0  0  0  0  0  0  0  0  0  0  0
    7.9517   -4.6397    0.0000 C   0  0  0  0  0  0  0  0  0  0  0  0
    7.2373   -5.0522    0.0000 O   0  0  0  0  0  0  0  0  0  0  0  0
    6.5228   -4.6397    0.0000 C   0  0  0  0  0  0  0  0  0  0  0  0
    6.5228   -3.8147    0.0000 C   0  0  0  0  0  0  0  0  0  0  0  0
  1  2  1  0  0  0  0
  1  6  1  0  0  0  0
  2  3  1  0  0  0  0
  3  4  1  0  0  0  0
  4  5  1  0  0  0  0
  5  6  1  0  0  0  0
  6  7  1  0  0  0  0
  7  8  1  0  0  0  0
  8  9  1  0  0  0  0
  8 10  2  0  0  0  0
  9 16  2  0  0  0  0
 10 11  1  0  0  0  0
 10 14  1  0  0  0  0
 11 12  2  0  0  0  0
 12 13  1  0  0  0  0
 13 14  1  0  0  0  0
 14 15  2  0  0  0  0
 15 16  1  0  0  0  0
 16 17  1  0  0  0  0
 17 18  1  0  0  0  0
 18 19  1  0  0  0  0
 18 21  2  0  0  0  0
 19 20  2  0  0  0  0
 20 23  1  0  0  0  0
 21 22  1  0  0  0  0
 22 23  2  0  0  0  0
 23 24  1  0  0  0  0
 24 25  1  0  0  0  0
 24 29  1  0  0  0  0
 25 26  1  0  0  0  0
 26 27  1  0  0  0  0
 27 28  1  0  0  0  0
 28 29  1  0  0  0  0
M  END
> <DRUGBANK_ID>
DB07340

> <DRUG_GROUPS>
experimental

> <GENERIC_NAME>
N~6~-cyclohexyl-N~2~-(4-morpholin-4-ylphenyl)-9H-purine-2,6-diamine

> <CHEMICAL_FORMULA>
C21H27N7O

> <MOLECULAR_WEIGHT>
393.4854

> <EXACT_MASS>
393.227708521

> <IUPAC_NAME>
6-N-cyclohexyl-2-N-[4-(morpholin-4-yl)phenyl]-9H-purine-2,6-diamine

> <IUPAC_TRADITIONAL_NAME>
6-N-cyclohexyl-2-N-[4-(morpholin-4-yl)phenyl]-9H-purine-2,6-diamine

> <INCHI_IDENTIFIER>
InChI=1S/C21H27N7O/c1-2-4-15(5-3-1)24-20-18-19(23-14-22-18)26-21(27-20)25-16-6-8-17(9-7-16)28-10-12-29-13-11-28/h6-9,14-15H,1-5,10-13H2,(H3,22,23,24,25,26,27)

> <INCHI_KEY>
InChIKey=ZFLJHSQHILSNCM-UHFFFAOYSA-N

> <SMILES>
C1CCC(CC1)NC1=C2N=CNC2=NC(NC2=CC=C(C=C2)N2CCOCC2)=N1

> <JCHEM_ACCEPTOR_COUNT>
7

> <JCHEM_DONOR_COUNT>
3

> <JCHEM_ACIDIC_PKA>
9.71

> <JCHEM_BASIC_PKA>
4.55

> <JCHEM_PHYSIOLOGICAL_CHARGE>
0

> <ALOGPS_LOGP>
4.39

> <JCHEM_LOGP>
3.58

> <ALOGPS_LOGS>
-4

> <JCHEM_POLARIZABILITY>
44.46

> <JCHEM_POLAR_SURFACE_AREA>
90.99

> <JCHEM_REFRACTIVITY>
115.04

> <JCHEM_ROTATABLE_BOND_COUNT>
5

> <ALOGPS_SOLUBILITY>
3.55e-02 g/l __ 

$$$$
