FBC
  Mrv0541 02241213372D          

 17 18  0  0  0  0            999 V2000
    1.5496    2.4387    0.0000 F   0  0  0  0  0  0  0  0  0  0  0  0
    1.5496    1.6137    0.0000 C   0  0  0  0  0  0  0  0  0  0  0  0
    2.2640    1.2012    0.0000 C   0  0  0  0  0  0  0  0  0  0  0  0
    2.2640    0.3762    0.0000 C   0  0  0  0  0  0  0  0  0  0  0  0
    2.9785   -0.0363    0.0000 F   0  0  0  0  0  0  0  0  0  0  0  0
    1.5496   -0.0363    0.0000 C   0  0  0  0  0  0  0  0  0  0  0  0
    0.8351    1.2012    0.0000 C   0  0  0  0  0  0  0  0  0  0  0  0
    0.8351    0.3762    0.0000 C   0  0  0  0  0  0  0  0  0  0  0  0
    0.1206   -0.0363    0.0000 C   0  0  0  0  0  0  0  0  0  0  0  0
    0.1206   -0.8613    0.0000 C   0  0  0  0  0  0  0  0  0  0  0  0
   -0.5938   -1.2738    0.0000 C   0  0  0  0  0  0  0  0  0  0  0  0
   -0.5938    0.3762    0.0000 C   0  0  0  0  0  0  0  0  0  0  0  0
   -1.3083   -0.0363    0.0000 C   0  0  0  0  0  0  0  0  0  0  0  0
   -1.3083   -0.8613    0.0000 C   0  0  0  0  0  0  0  0  0  0  0  0
   -2.0228   -1.2738    0.0000 C   0  0  0  0  0  0  0  0  0  0  0  0
   -2.0228   -2.0988    0.0000 O   0  0  0  0  0  0  0  0  0  0  0  0
   -2.7373   -0.8613    0.0000 O   0  0  0  0  0  0  0  0  0  0  0  0
  1  2  1  0  0  0  0
  2  3  2  0  0  0  0
  2  7  1  0  0  0  0
  3  4  1  0  0  0  0
  4  5  1  0  0  0  0
  4  6  2  0  0  0  0
  6  8  1  0  0  0  0
  7  8  2  0  0  0  0
  8  9  1  0  0  0  0
  9 10  2  0  0  0  0
  9 12  1  0  0  0  0
 10 11  1  0  0  0  0
 11 14  2  0  0  0  0
 12 13  2  0  0  0  0
 13 14  1  0  0  0  0
 14 15  1  0  0  0  0
 15 16  2  0  0  0  0
 15 17  1  0  0  0  0
M  END
> <DRUGBANK_ID>
DB07753

> <DRUG_GROUPS>
experimental

> <GENERIC_NAME>
3',5'-DIFLUOROBIPHENYL-4-CARBOXYLIC ACID

> <CHEMICAL_FORMULA>
C13H8F2O2

> <MOLECULAR_WEIGHT>
234.1982

> <EXACT_MASS>
234.04923591

> <IUPAC_NAME>
4-(3,5-difluorophenyl)benzoic acid

> <IUPAC_TRADITIONAL_NAME>
4-(3,5-difluorophenyl)benzoic acid

> <INCHI_IDENTIFIER>
InChI=1S/C13H8F2O2/c14-11-5-10(6-12(15)7-11)8-1-3-9(4-2-8)13(16)17/h1-7H,(H,16,17)

> <INCHI_KEY>
InChIKey=VCEFNMHMLWBFNV-UHFFFAOYSA-N

> <SMILES>
OC(=O)C1=CC=C(C=C1)C1=CC(F)=CC(F)=C1

> <JCHEM_ACCEPTOR_COUNT>
2

> <JCHEM_DONOR_COUNT>
1

> <JCHEM_ACIDIC_PKA>
4.05

> <JCHEM_PHYSIOLOGICAL_CHARGE>
-1

> <ALOGPS_LOGP>
3.48

> <JCHEM_LOGP>
3.56

> <ALOGPS_LOGS>
-4

> <JCHEM_POLARIZABILITY>
21.54

> <JCHEM_POLAR_SURFACE_AREA>
37.3

> <JCHEM_REFRACTIVITY>
58.88

> <JCHEM_ROTATABLE_BOND_COUNT>
2

> <ALOGPS_SOLUBILITY>
2.15e-02 g/l __ 

$$$$
