421
  Mrv0541 02241213112D          

 28 30  0  0  0  0            999 V2000
   -0.2940   -1.7154    0.0000 C   0  0  0  0  0  0  0  0  0  0  0  0
   -1.0085   -2.1279    0.0000 C   0  0  0  0  0  0  0  0  0  0  0  0
   -1.7229   -1.7154    0.0000 C   0  0  0  0  0  0  0  0  0  0  0  0
   -1.7229   -0.8904    0.0000 C   0  0  0  0  0  0  0  0  0  0  0  0
   -1.0085   -0.4779    0.0000 C   0  0  0  0  0  0  0  0  0  0  0  0
   -0.2940   -0.8904    0.0000 C   0  0  0  0  0  0  0  0  0  0  0  0
    0.4205   -0.4779    0.0000 C   0  0  0  0  0  0  0  0  0  0  0  0
    1.1349   -0.8904    0.0000 C   0  0  0  0  0  0  0  0  0  0  0  0
    1.1349   -1.7154    0.0000 C   0  0  0  0  0  0  0  0  0  0  0  0
    0.4205   -2.1279    0.0000 C   0  0  0  0  0  0  0  0  0  0  0  0
   -2.4374   -0.4779    0.0000 C   0  0  0  0  0  0  0  0  0  0  0  0
   -3.1519   -0.8904    0.0000 N   0  0  0  0  0  0  0  0  0  0  0  0
   -2.4374    0.3471    0.0000 N   0  0  0  0  0  0  0  0  0  0  0  0
    0.4205    0.3471    0.0000 N   0  0  0  0  0  0  0  0  0  0  0  0
   -0.2940    0.7596    0.0000 C   0  0  0  0  0  0  0  0  0  0  0  0
   -0.2940    1.5846    0.0000 C   0  0  0  0  0  0  0  0  0  0  0  0
   -1.0085    0.3471    0.0000 O   0  0  0  0  0  0  0  0  0  0  0  0
   -1.0085    1.9971    0.0000 C   0  0  0  0  0  0  0  0  0  0  0  0
   -1.0085    2.8221    0.0000 C   0  0  0  0  0  0  0  0  0  0  0  0
   -0.2940    3.2346    0.0000 C   0  0  0  0  0  0  0  0  0  0  0  0
    0.4205    2.8221    0.0000 C   0  0  0  0  0  0  0  0  0  0  0  0
    0.4205    1.9971    0.0000 C   0  0  0  0  0  0  0  0  0  0  0  0
    1.1349    1.5846    0.0000 C   0  0  0  0  0  0  0  0  0  0  0  0
    1.1349    3.2346    0.0000 O   0  0  0  0  0  0  0  0  0  0  0  0
    1.8494   -2.1279    0.0000 C   0  0  0  0  0  0  0  0  0  0  0  0
    1.8494   -2.9529    0.0000 O   0  0  0  0  0  0  0  0  0  0  0  0
    2.5639   -1.7154    0.0000 O   0  0  0  0  0  0  0  0  0  0  0  0
    3.2784   -2.1279    0.0000 C   0  0  0  0  0  0  0  0  0  0  0  0
  1  2  2  0  0  0  0
  1  6  1  0  0  0  0
  1 10  1  0  0  0  0
  2  3  1  0  0  0  0
  3  4  2  0  0  0  0
  4  5  1  0  0  0  0
  4 11  1  0  0  0  0
  5  6  2  0  0  0  0
  6  7  1  0  0  0  0
  7  8  2  0  0  0  0
  7 14  1  0  0  0  0
  8  9  1  0  0  0  0
  9 10  2  0  0  0  0
  9 25  1  0  0  0  0
 11 12  1  0  0  0  0
 11 13  2  0  0  0  0
 14 15  1  0  0  0  0
 15 16  1  0  0  0  0
 15 17  2  0  0  0  0
 16 18  2  0  0  0  0
 16 22  1  0  0  0  0
 18 19  1  0  0  0  0
 19 20  2  0  0  0  0
 20 21  1  0  0  0  0
 21 22  2  0  0  0  0
 21 24  1  0  0  0  0
 22 23  1  0  0  0  0
 25 26  2  0  0  0  0
 25 27  1  0  0  0  0
 27 28  1  0  0  0  0
M  END
> <DRUGBANK_ID>
DB07074

> <DRUG_GROUPS>
experimental

> <GENERIC_NAME>
6-CARBAMIMIDOYL-4-(3-HYDROXY-2-METHYL-BENZOYLAMINO)-NAPHTHALENE-2-CARBOXYLIC ACID METHYL ESTER

> <CHEMICAL_FORMULA>
C21H19N3O4

> <MOLECULAR_WEIGHT>
377.3933

> <EXACT_MASS>
377.137556111

> <IUPAC_NAME>
methyl 6-carbamimidoyl-4-[(3-hydroxy-2-methylbenzene)amido]naphthalene-2-carboxylate

> <IUPAC_TRADITIONAL_NAME>
methyl 6-carbamimidoyl-4-(3-hydroxy-2-methylbenzamido)naphthalene-2-carboxylate

> <INCHI_IDENTIFIER>
InChI=1S/C21H19N3O4/c1-11-15(4-3-5-18(11)25)20(26)24-17-10-14(21(27)28-2)8-12-6-7-13(19(22)23)9-16(12)17/h3-10,25H,1-2H3,(H3,22,23)(H,24,26)

> <INCHI_KEY>
InChIKey=OUBRALHIKGRAMA-UHFFFAOYSA-N

> <SMILES>
COC(=O)C1=CC2=CC=C(C=C2C(NC(=O)C2=CC=CC(O)=C2C)=C1)C(N)=N

> <JCHEM_ACCEPTOR_COUNT>
5

> <JCHEM_DONOR_COUNT>
4

> <JCHEM_ACIDIC_PKA>
9.16

> <JCHEM_BASIC_PKA>
11.28

> <JCHEM_PHYSIOLOGICAL_CHARGE>
1

> <ALOGPS_LOGP>
2.4

> <JCHEM_LOGP>
2.6

> <ALOGPS_LOGS>
-4.3

> <JCHEM_POLARIZABILITY>
40.09

> <JCHEM_POLAR_SURFACE_AREA>
125.5

> <JCHEM_REFRACTIVITY>
118.76

> <JCHEM_ROTATABLE_BOND_COUNT>
5

> <ALOGPS_SOLUBILITY>
1.74e-02 g/l __ 

$$$$
