CT5
  Mrv0541 02241213312D          

 26 29  0  0  0  0            999 V2000
   -0.0168   -0.3863    0.0000 C   0  0  0  0  0  0  0  0  0  0  0  0
    0.6976   -0.7988    0.0000 C   0  0  0  0  0  0  0  0  0  0  0  0
    1.4121   -0.3863    0.0000 O   0  0  0  0  0  0  0  0  0  0  0  0
    1.4121   -2.0363    0.0000 O   0  0  0  0  0  0  0  0  0  0  0  0
    0.6976   -1.6238    0.0000 C   0  0  0  0  0  0  0  0  0  0  0  0
   -0.0168   -2.0363    0.0000 C   0  0  0  0  0  0  0  0  0  0  0  0
   -0.7313   -1.6238    0.0000 C   0  0  0  0  0  0  0  0  0  0  0  0
   -0.7313   -0.7988    0.0000 C   0  0  0  0  0  0  0  0  0  0  0  0
   -1.4458   -0.3863    0.0000 C   0  0  0  0  0  0  0  0  0  0  0  0
   -2.1995   -0.7218    0.0000 C   0  0  0  0  0  0  0  0  0  0  0  0
   -2.3710   -1.5288    0.0000 C   0  0  0  0  0  0  0  0  0  0  0  0
   -2.7515   -0.1088    0.0000 N   0  0  0  0  0  0  0  0  0  0  0  0
   -1.5320    0.4342    0.0000 C   0  0  0  0  0  0  0  0  0  0  0  0
   -2.3390    0.6057    0.0000 N   0  0  0  0  0  0  0  0  0  0  0  0
   -0.9189    0.9862    0.0000 C   0  0  0  0  0  0  0  0  0  0  0  0
   -0.1343    0.7313    0.0000 C   0  0  0  0  0  0  0  0  0  0  0  0
    0.4788    1.2833    0.0000 C   0  0  0  0  0  0  0  0  0  0  0  0
    1.2634    1.0284    0.0000 C   0  0  0  0  0  0  0  0  0  0  0  0
    1.8765    1.5804    0.0000 C   0  0  0  0  0  0  0  0  0  0  0  0
    0.3073    2.0903    0.0000 C   0  0  0  0  0  0  0  0  0  0  0  0
    2.1266   -0.7988    0.0000 C   0  0  0  0  0  0  0  0  0  0  0  0
    0.9204    2.6423    0.0000 O   0  0  0  0  0  0  0  0  0  0  0  0
   -0.4774    2.3452    0.0000 C   0  0  0  0  0  0  0  0  0  0  0  0
    2.1266   -1.6238    0.0000 C   0  0  0  0  0  0  0  0  0  0  0  0
   -1.0905    1.7932    0.0000 C   0  0  0  0  0  0  0  0  0  0  0  0
   -1.8751    2.0481    0.0000 O   0  0  0  0  0  0  0  0  0  0  0  0
  1  2  2  0  0  0  0
  1  8  1  0  0  0  0
  2  3  1  0  0  0  0
  2  5  1  0  0  0  0
  3 21  1  0  0  0  0
  4  5  1  0  0  0  0
  4 24  1  0  0  0  0
  5  6  2  0  0  0  0
  6  7  1  0  0  0  0
  7  8  2  0  0  0  0
  8  9  1  0  0  0  0
  9 10  1  0  0  0  0
  9 13  2  0  0  0  0
 10 11  1  0  0  0  0
 10 12  2  0  0  0  0
 12 14  1  0  0  0  0
 13 14  1  0  0  0  0
 13 15  1  0  0  0  0
 15 16  2  0  0  0  0
 15 25  1  0  0  0  0
 16 17  1  0  0  0  0
 17 18  1  0  0  0  0
 17 20  2  0  0  0  0
 18 19  1  0  0  0  0
 20 22  1  0  0  0  0
 20 23  1  0  0  0  0
 21 24  1  0  0  0  0
 23 25  2  0  0  0  0
 25 26  1  0  0  0  0
M  END
> <DRUGBANK_ID>
DB07594

> <DRUG_GROUPS>
experimental

> <GENERIC_NAME>
4-[4-(2,3-DIHYDRO-1,4-BENZODIOXIN-6-YL)-3-METHYL-1H-PYRAZOL-5-YL]-6-ETHYLBENZENE-1,3-DIOL

> <CHEMICAL_FORMULA>
C20H20N2O4

> <MOLECULAR_WEIGHT>
352.3838

> <EXACT_MASS>
352.142307138

> <IUPAC_NAME>
4-[4-(2,3-dihydro-1,4-benzodioxin-6-yl)-3-methyl-1H-pyrazol-5-yl]-6-ethylbenzene-1,3-diol

> <IUPAC_TRADITIONAL_NAME>
4-[4-(2,3-dihydro-1,4-benzodioxin-6-yl)-5-methyl-2H-pyrazol-3-yl]-6-ethylbenzene-1,3-diol

> <INCHI_IDENTIFIER>
InChI=1S/C20H20N2O4/c1-3-12-8-14(16(24)10-15(12)23)20-19(11(2)21-22-20)13-4-5-17-18(9-13)26-7-6-25-17/h4-5,8-10,23-24H,3,6-7H2,1-2H3,(H,21,22)

> <INCHI_KEY>
InChIKey=OWPMENVYXDJDOW-UHFFFAOYSA-N

> <SMILES>
CCC1=C(O)C=C(O)C(=C1)C1=C(C(C)=NN1)C1=CC=C2OCCOC2=C1

> <JCHEM_ACCEPTOR_COUNT>
5

> <JCHEM_DONOR_COUNT>
3

> <JCHEM_ACIDIC_PKA>
9.21

> <JCHEM_BASIC_PKA>
2.57

> <JCHEM_PHYSIOLOGICAL_CHARGE>
0

> <ALOGPS_LOGP>
3.61

> <JCHEM_LOGP>
3.49

> <ALOGPS_LOGS>
-3.5

> <JCHEM_POLARIZABILITY>
37.36

> <JCHEM_POLAR_SURFACE_AREA>
87.6

> <JCHEM_REFRACTIVITY>
99.05

> <JCHEM_ROTATABLE_BOND_COUNT>
3

> <ALOGPS_SOLUBILITY>
1.04e-01 g/l __ 

$$$$
