I5S
  Mrv0541 02241213452D          

 28 30  0  0  0  0            999 V2000
   -6.2990   -1.2297    0.0000 Cl   0  0  0  0  0  0  0  0  0  0  0  0
   -5.5845   -0.8172    0.0000 C    0  0  0  0  0  0  0  0  0  0  0  0
   -5.5845    0.0078    0.0000 C    0  0  0  0  0  0  0  0  0  0  0  0
   -4.8700    0.4203    0.0000 C    0  0  0  0  0  0  0  0  0  0  0  0
   -4.1556    0.0078    0.0000 C    0  0  0  0  0  0  0  0  0  0  0  0
   -3.4411    0.4203    0.0000 C    0  0  0  0  0  0  0  0  0  0  0  0
   -2.7266    0.0078    0.0000 O    0  0  0  0  0  0  0  0  0  0  0  0
   -2.0122    0.4203    0.0000 C    0  0  0  0  0  0  0  0  0  0  0  0
   -1.2977    0.0078    0.0000 C    0  0  0  0  0  0  0  0  0  0  0  0
   -0.5832    0.4203    0.0000 N    0  0  0  0  0  0  0  0  0  0  0  0
    0.1313    0.0078    0.0000 C    0  0  0  0  0  0  0  0  0  0  0  0
    0.8457    0.4203    0.0000 C    0  0  0  0  0  0  0  0  0  0  0  0
    1.5602    0.0078    0.0000 N    0  0  0  0  0  0  0  0  0  0  0  0
    2.2747    0.4203    0.0000 S    0  0  0  0  0  0  0  0  0  0  0  0
    2.6872   -0.2941    0.0000 O    0  0  0  0  0  0  0  0  0  0  0  0
    1.8622    1.1348    0.0000 O    0  0  0  0  0  0  0  0  0  0  0  0
    2.9891    0.8328    0.0000 C    0  0  0  0  0  0  0  0  0  0  0  0
    2.9891    1.6578    0.0000 C    0  0  0  0  0  0  0  0  0  0  0  0
    3.7036    2.0703    0.0000 C    0  0  0  0  0  0  0  0  0  0  0  0
    4.4181    1.6578    0.0000 C    0  0  0  0  0  0  0  0  0  0  0  0
    4.4181    0.8328    0.0000 C    0  0  0  0  0  0  0  0  0  0  0  0
    5.1326    0.4203    0.0000 C    0  0  0  0  0  0  0  0  0  0  0  0
    5.1326   -0.4047    0.0000 N    0  0  0  0  0  0  0  0  0  0  0  0
    4.4181   -0.8172    0.0000 C    0  0  0  0  0  0  0  0  0  0  0  0
    3.7036   -0.4047    0.0000 C    0  0  0  0  0  0  0  0  0  0  0  0
    3.7036    0.4203    0.0000 C    0  0  0  0  0  0  0  0  0  0  0  0
   -4.1556   -0.8172    0.0000 C    0  0  0  0  0  0  0  0  0  0  0  0
   -4.8700   -1.2297    0.0000 C    0  0  0  0  0  0  0  0  0  0  0  0
  1  2  1  0  0  0  0
  2  3  2  0  0  0  0
  2 28  1  0  0  0  0
  3  4  1  0  0  0  0
  4  5  2  0  0  0  0
  5  6  1  0  0  0  0
  5 27  1  0  0  0  0
  6  7  1  0  0  0  0
  7  8  1  0  0  0  0
  8  9  1  0  0  0  0
  9 10  1  0  0  0  0
 10 11  1  0  0  0  0
 11 12  1  0  0  0  0
 12 13  1  0  0  0  0
 13 14  1  0  0  0  0
 14 15  2  0  0  0  0
 14 16  2  0  0  0  0
 14 17  1  0  0  0  0
 17 18  2  0  0  0  0
 17 26  1  0  0  0  0
 18 19  1  0  0  0  0
 19 20  2  0  0  0  0
 20 21  1  0  0  0  0
 21 22  2  0  0  0  0
 21 26  1  0  0  0  0
 22 23  1  0  0  0  0
 23 24  2  0  0  0  0
 24 25  1  0  0  0  0
 25 26  2  0  0  0  0
 27 28  2  0  0  0  0
M  END
> <DRUGBANK_ID>
DB07947

> <DRUG_GROUPS>
experimental

> <GENERIC_NAME>
ISOQUINOLINE-5-SULFONIC ACID (2-(2-(4-CHLOROBENZYLOXY)ETHYLAMINO)ETHYL)AMIDE

> <CHEMICAL_FORMULA>
C20H22ClN3O3S

> <MOLECULAR_WEIGHT>
419.925

> <EXACT_MASS>
419.107039982

> <IUPAC_NAME>
N-[2-({2-[(4-chlorophenyl)methoxy]ethyl}amino)ethyl]isoquinoline-5-sulfonamide

> <IUPAC_TRADITIONAL_NAME>
N-[2-({2-[(4-chlorophenyl)methoxy]ethyl}amino)ethyl]isoquinoline-5-sulfonamide

> <INCHI_IDENTIFIER>
InChI=1S/C20H22ClN3O3S/c21-18-6-4-16(5-7-18)15-27-13-12-22-10-11-24-28(25,26)20-3-1-2-17-14-23-9-8-19(17)20/h1-9,14,22,24H,10-13,15H2

> <INCHI_KEY>
InChIKey=AUHWQSZMVMMRLM-UHFFFAOYSA-N

> <SMILES>
ClC1=CC=C(COCCNCCNS(=O)(=O)C2=CC=CC3=CN=CC=C23)C=C1

> <JCHEM_ACCEPTOR_COUNT>
5

> <JCHEM_DONOR_COUNT>
2

> <JCHEM_ACIDIC_PKA>
10.05

> <JCHEM_BASIC_PKA>
8.42

> <JCHEM_PHYSIOLOGICAL_CHARGE>
1

> <ALOGPS_LOGP>
2.09

> <JCHEM_LOGP>
2.36

> <ALOGPS_LOGS>
-5

> <JCHEM_POLARIZABILITY>
44.08

> <JCHEM_POLAR_SURFACE_AREA>
80.32

> <JCHEM_REFRACTIVITY>
110.59

> <JCHEM_ROTATABLE_BOND_COUNT>
9

> <ALOGPS_SOLUBILITY>
3.72e-03 g/l __ 

$$$$
