528
  Mrv0541 02241213132D          

 35 36  0  0  0  0            999 V2000
   -4.9492    1.1198    0.0000 C   0  0  0  0  0  0  0  0  0  0  0  0
   -5.6952    0.7674    0.0000 C   0  0  0  0  0  0  0  0  0  0  0  0
   -5.7630   -0.0548    0.0000 C   0  0  0  0  0  0  0  0  0  0  0  0
   -5.0848   -0.5246    0.0000 C   0  0  0  0  0  0  0  0  0  0  0  0
   -4.3389   -0.1723    0.0000 C   0  0  0  0  0  0  0  0  0  0  0  0
   -4.2711    0.6500    0.0000 C   0  0  0  0  0  0  0  0  0  0  0  0
   -3.5251    1.0023    0.0000 C   0  0  0  0  0  0  0  0  0  0  0  0
   -2.8470    0.5325    0.0000 C   0  0  0  0  0  0  0  0  0  0  0  0
   -2.1010    0.8849    0.0000 C   0  0  0  0  0  0  0  0  0  0  0  0
   -1.4229    0.4150    0.0000 S   0  0  0  0  0  0  0  0  0  0  0  0
   -1.8927   -0.2631    0.0000 O   0  0  0  0  0  0  0  0  0  0  0  0
   -0.9530    1.0932    0.0000 O   0  0  0  0  0  0  0  0  0  0  0  0
   -0.7447   -0.0548    0.0000 N   0  0  0  0  0  0  0  0  0  0  0  0
    0.0013    0.2976    0.0000 C   0  0  1  0  0  0  0  0  0  0  0  0
    0.0691    1.1198    0.0000 C   0  0  0  0  0  0  0  0  0  0  0  0
    0.8150    1.4722    0.0000 C   0  0  0  0  0  0  0  0  0  0  0  0
   -0.6091    1.5896    0.0000 C   0  0  0  0  0  0  0  0  0  0  0  0
    0.6794   -0.1723    0.0000 P   0  0  2  0  0  0  0  0  0  0  0  0
    0.2096   -0.8504    0.0000 O   0  0  0  0  0  0  0  0  0  0  0  0
    1.1492    0.5059    0.0000 O   0  0  0  0  0  0  0  0  0  0  0  0
    1.3575   -0.6421    0.0000 C   0  0  0  0  0  0  0  0  0  0  0  0
    2.1035   -0.2897    0.0000 C   0  0  2  0  0  0  0  0  0  0  0  0
    2.1713    0.5325    0.0000 C   0  0  0  0  0  0  0  0  0  0  0  0
    1.4932    1.0023    0.0000 O   0  0  0  0  0  0  0  0  0  0  0  0
    2.9173    0.8849    0.0000 O   0  0  0  0  0  0  0  0  0  0  0  0
    2.7816   -0.7595    0.0000 C   0  0  0  0  0  0  0  0  0  0  0  0
    3.5276   -0.4072    0.0000 C   0  0  0  0  0  0  0  0  0  0  0  0
    2.7138   -1.5818    0.0000 C   0  0  0  0  0  0  0  0  0  0  0  0
    3.3920   -2.0516    0.0000 C   0  0  0  0  0  0  0  0  0  0  0  0
    4.1379   -1.6992    0.0000 C   0  0  0  0  0  0  0  0  0  0  0  0
    4.2058   -0.8770    0.0000 C   0  0  0  0  0  0  0  0  0  0  0  0
    4.9517   -0.5246    0.0000 C   0  0  0  0  0  0  0  0  0  0  0  0
    5.0195    0.2976    0.0000 N   0  0  0  0  0  0  0  0  0  0  0  0
   -0.4787    0.6301    0.0000 H   0  0  0  0  0  0  0  0  0  0  0  0
    2.0555   -0.8717    0.0000 H   0  0  0  0  0  0  0  0  0  0  0  0
  1  6  2  0  0  0  0
  1  2  1  0  0  0  0
  2  3  2  0  0  0  0
  3  4  1  0  0  0  0
  4  5  2  0  0  0  0
  5  6  1  0  0  0  0
  6  7  1  0  0  0  0
  7  8  1  0  0  0  0
  8  9  1  0  0  0  0
  9 10  1  0  0  0  0
 10 13  1  0  0  0  0
 10 11  2  0  0  0  0
 10 12  2  0  0  0  0
 14 13  1  1  0  0  0
 14 15  1  0  0  0  0
 14 18  1  0  0  0  0
 14 34  1  6  0  0  0
 15 16  1  0  0  0  0
 15 17  1  0  0  0  0
 18 19  2  0  0  0  0
 18 21  1  6  0  0  0
 18 20  1  1  0  0  0
 21 22  1  0  0  0  0
 22 26  1  0  0  0  0
 22 23  1  1  0  0  0
 22 35  1  1  0  0  0
 23 24  2  0  0  0  0
 23 25  1  0  0  0  0
 26 27  2  0  0  0  0
 26 28  1  0  0  0  0
 27 31  1  0  0  0  0
 28 29  2  0  0  0  0
 29 30  1  0  0  0  0
 30 31  2  0  0  0  0
 31 32  1  0  0  0  0
 32 33  1  0  0  0  0
M  END
> <DRUGBANK_ID>
DB07136

> <DRUG_GROUPS>
experimental

> <GENERIC_NAME>
(2S)-2-[3-(AMINOMETHYL)PHENYL]-3-{(R)-HYDROXY[(1R)-2-METHYL-1-{[(3-PHENYLPROPYL)SULFONYL]AMINO}PROPYL]PHOSPHORYL}PROPANOIC ACID

> <CHEMICAL_FORMULA>
C23H33N2O6PS

> <MOLECULAR_WEIGHT>
496.557

> <EXACT_MASS>
496.179694

> <IUPAC_NAME>
(2S)-2-[3-(aminomethyl)phenyl]-3-{hydroxy[(1R)-2-methyl-1-[(3-phenylpropane)sulfonamido]propyl]phosphoryl}propanoic acid

> <IUPAC_TRADITIONAL_NAME>
(2S)-2-[3-(aminomethyl)phenyl]-3-[hydroxy(1R)-2-methyl-1-(3-phenylpropanesulfonamido)propylphosphoryl]propanoic acid

> <INCHI_IDENTIFIER>
InChI=1S/C23H33N2O6PS/c1-17(2)22(25-33(30,31)13-7-11-18-8-4-3-5-9-18)32(28,29)16-21(23(26)27)20-12-6-10-19(14-20)15-24/h3-6,8-10,12,14,17,21-22,25H,7,11,13,15-16,24H2,1-2H3,(H,26,27)(H,28,29)/t21-,22+/m0/s1

> <INCHI_KEY>
InChIKey=WFFOOKSVFDUPDH-FCHUYYIVSA-N

> <SMILES>
[H][C@@](C[P@](O)(=O)[C@@]([H])(NS(=O)(=O)CCCC1=CC=CC=C1)C(C)C)(C(O)=O)C1=CC(CN)=CC=C1

> <JCHEM_ACCEPTOR_COUNT>
7

> <JCHEM_DONOR_COUNT>
4

> <JCHEM_ACIDIC_PKA>
1.52

> <JCHEM_BASIC_PKA>
9.43

> <JCHEM_PHYSIOLOGICAL_CHARGE>
-1

> <ALOGPS_LOGP>
-0.43

> <JCHEM_LOGP>
1.08

> <ALOGPS_LOGS>
-3.6

> <JCHEM_POLARIZABILITY>
50.67

> <JCHEM_POLAR_SURFACE_AREA>
146.79

> <JCHEM_REFRACTIVITY>
128.41

> <JCHEM_ROTATABLE_BOND_COUNT>
12

> <ALOGPS_SOLUBILITY>
1.22e-01 g/l __ 

$$$$
