D1T
  Mrv0541 02241213322D          

 11 10  0  0  0  0            999 V2000
   -2.7947    0.2651    0.0000 C   0  0  0  0  0  0  0  0  0  0  0  0
   -2.0802   -0.1474    0.0000 C   0  0  0  0  0  0  0  0  0  0  0  0
   -1.3656    0.2651    0.0000 C   0  0  0  0  0  0  0  0  0  0  0  0
   -0.6511   -0.1474    0.0000 C   0  0  0  0  0  0  0  0  0  0  0  0
    0.0634    0.2651    0.0000 C   0  0  0  0  0  0  0  0  0  0  0  0
    0.7780   -0.1474    0.0000 C   0  0  0  0  0  0  0  0  0  0  0  0
    1.4924    0.2651    0.0000 C   0  0  0  0  0  0  0  0  0  0  0  0
    2.2070   -0.1474    0.0000 C   0  0  0  0  0  0  0  0  0  0  0  0
    2.9215    0.2651    0.0000 C   0  0  0  0  0  0  0  0  0  0  0  0
    3.6361   -0.1474    0.0000 C   0  0  0  0  0  0  0  0  0  0  0  0
    4.3505    0.2651    0.0000 S   0  0  0  0  0  0  0  0  0  0  0  0
  1  2  1  0  0  0  0
  2  3  1  0  0  0  0
  3  4  1  0  0  0  0
  4  5  1  0  0  0  0
  5  6  1  0  0  0  0
  6  7  1  0  0  0  0
  7  8  1  0  0  0  0
  8  9  1  0  0  0  0
  9 10  1  0  0  0  0
 10 11  1  0  0  0  0
M  END
> <DRUGBANK_ID>
DB07611

> <DRUG_GROUPS>
experimental

> <GENERIC_NAME>
DECANE-1-THIOL

> <CHEMICAL_FORMULA>
C10H22S

> <MOLECULAR_WEIGHT>
174.347

> <EXACT_MASS>
174.144221394

> <IUPAC_NAME>
decane-1-thiol

> <IUPAC_TRADITIONAL_NAME>
1-decanethiol

> <INCHI_IDENTIFIER>
InChI=1S/C10H22S/c1-2-3-4-5-6-7-8-9-10-11/h11H,2-10H2,1H3

> <INCHI_KEY>
InChIKey=VTXVGVNLYGSIAR-UHFFFAOYSA-N

> <SMILES>
CCCCCCCCCCS

> <JCHEM_ACCEPTOR_COUNT>
0

> <JCHEM_DONOR_COUNT>
1

> <JCHEM_ACIDIC_PKA>
10.2

> <JCHEM_BASIC_PKA>
-9.6

> <JCHEM_PHYSIOLOGICAL_CHARGE>
0

> <ALOGPS_LOGP>
6.24

> <JCHEM_LOGP>
4.72

> <ALOGPS_LOGS>
-4.8

> <JCHEM_POLARIZABILITY>
23.8

> <JCHEM_POLAR_SURFACE_AREA>
0

> <JCHEM_REFRACTIVITY>
55.77

> <JCHEM_ROTATABLE_BOND_COUNT>
8

> <ALOGPS_SOLUBILITY>
3.08e-03 g/l __ 

$$$$
