444
  Mrv0541 02241213112D          

 31 32  0  0  0  0            999 V2000
   -0.8635    0.7131    0.0000 O   0  0  0  0  0  0  0  0  0  0  0  0
   -0.4510    1.4275    0.0000 S   0  0  0  0  0  0  0  0  0  0  0  0
   -0.0385    2.1420    0.0000 O   0  0  0  0  0  0  0  0  0  0  0  0
   -1.1655    1.8400    0.0000 C   0  0  0  0  0  0  0  0  0  0  0  0
   -1.8799    1.4275    0.0000 C   0  0  0  0  0  0  0  0  0  0  0  0
   -2.5944    1.8400    0.0000 C   0  0  0  0  0  0  0  0  0  0  0  0
   -2.5944    2.6650    0.0000 C   0  0  0  0  0  0  0  0  0  0  0  0
   -1.8799    3.0775    0.0000 C   0  0  0  0  0  0  0  0  0  0  0  0
   -1.1655    2.6650    0.0000 C   0  0  0  0  0  0  0  0  0  0  0  0
    0.2635    1.0150    0.0000 N   0  0  0  0  0  0  0  0  0  0  0  0
    0.9779    1.4275    0.0000 C   0  0  0  0  0  0  0  0  0  0  0  0
    1.6924    1.0150    0.0000 C   0  0  0  0  0  0  0  0  0  0  0  0
    1.2799    0.3006    0.0000 F   0  0  0  0  0  0  0  0  0  0  0  0
    2.1049    1.7295    0.0000 F   0  0  0  0  0  0  0  0  0  0  0  0
    2.4069    0.6025    0.0000 F   0  0  0  0  0  0  0  0  0  0  0  0
    0.2635    0.1900    0.0000 C   0  0  0  0  0  0  0  0  0  0  0  0
    0.9779   -0.2225    0.0000 C   0  0  0  0  0  0  0  0  0  0  0  0
    0.9779   -1.0475    0.0000 C   0  0  0  0  0  0  0  0  0  0  0  0
   -0.4510   -0.2225    0.0000 C   0  0  0  0  0  0  0  0  0  0  0  0
   -0.4510   -1.0475    0.0000 C   0  0  0  0  0  0  0  0  0  0  0  0
    0.2635   -1.4600    0.0000 C   0  0  0  0  0  0  0  0  0  0  0  0
    0.2635   -2.2850    0.0000 C   0  0  0  0  0  0  0  0  0  0  0  0
    1.0885   -2.2850    0.0000 C   0  0  0  0  0  0  0  0  0  0  0  0
    1.9135   -2.2850    0.0000 F   0  0  0  0  0  0  0  0  0  0  0  0
    1.0885   -3.1100    0.0000 F   0  0  0  0  0  0  0  0  0  0  0  0
    1.0885   -1.4600    0.0000 F   0  0  0  0  0  0  0  0  0  0  0  0
    0.2635   -3.1100    0.0000 O   0  0  0  0  0  0  0  0  0  0  0  0
   -0.5615   -2.2850    0.0000 C   0  0  0  0  0  0  0  0  0  0  0  0
   -1.3865   -2.2850    0.0000 F   0  0  0  0  0  0  0  0  0  0  0  0
   -0.5615   -1.4600    0.0000 F   0  0  0  0  0  0  0  0  0  0  0  0
   -0.5615   -3.1100    0.0000 F   0  0  0  0  0  0  0  0  0  0  0  0
  1  2  2  0  0  0  0
  2  3  2  0  0  0  0
  2  4  1  0  0  0  0
  2 10  1  0  0  0  0
  4  5  2  0  0  0  0
  4  9  1  0  0  0  0
  5  6  1  0  0  0  0
  6  7  2  0  0  0  0
  7  8  1  0  0  0  0
  8  9  2  0  0  0  0
 10 11  1  0  0  0  0
 10 16  1  0  0  0  0
 11 12  1  0  0  0  0
 12 13  1  0  0  0  0
 12 14  1  0  0  0  0
 12 15  1  0  0  0  0
 16 17  2  0  0  0  0
 16 19  1  0  0  0  0
 17 18  1  0  0  0  0
 18 21  2  0  0  0  0
 19 20  2  0  0  0  0
 20 21  1  0  0  0  0
 21 22  1  0  0  0  0
 22 23  1  0  0  0  0
 22 27  1  0  0  0  0
 22 28  1  0  0  0  0
 23 24  1  0  0  0  0
 23 25  1  0  0  0  0
 23 26  1  0  0  0  0
 28 29  1  0  0  0  0
 28 30  1  0  0  0  0
 28 31  1  0  0  0  0
M  END
> <DRUGBANK_ID>
DB07080

> <DRUG_GROUPS>
experimental

> <GENERIC_NAME>
N-(2,2,2-TRIFLUOROETHYL)-N-{4-[2,2,2-TRIFLUORO-1-HYDROXY-1-(TRIFLUOROMETHYL)ETHYL]PHENYL}BENZENESULFONAMIDE

> <CHEMICAL_FORMULA>
C17H12F9NO3S

> <MOLECULAR_WEIGHT>
481.333

> <EXACT_MASS>
481.03941779

> <IUPAC_NAME>
N-[4-(1,1,1,3,3,3-hexafluoro-2-hydroxypropan-2-yl)phenyl]-N-(2,2,2-trifluoroethyl)benzenesulfonamide

> <IUPAC_TRADITIONAL_NAME>
N-[4-(1,1,1,3,3,3-hexafluoro-2-hydroxypropan-2-yl)phenyl]-N-(2,2,2-trifluoroethyl)benzenesulfonamide

> <INCHI_IDENTIFIER>
InChI=1S/C17H12F9NO3S/c18-14(19,20)10-27(31(29,30)13-4-2-1-3-5-13)12-8-6-11(7-9-12)15(28,16(21,22)23)17(24,25)26/h1-9,28H,10H2

> <INCHI_KEY>
InChIKey=SGIWFELWJPNFDH-UHFFFAOYSA-N

> <SMILES>
OC(C1=CC=C(C=C1)N(CC(F)(F)F)S(=O)(=O)C1=CC=CC=C1)(C(F)(F)F)C(F)(F)F

> <JCHEM_ACCEPTOR_COUNT>
3

> <JCHEM_DONOR_COUNT>
1

> <JCHEM_ACIDIC_PKA>
7.45

> <JCHEM_BASIC_PKA>
-6.1

> <JCHEM_PHYSIOLOGICAL_CHARGE>
0

> <ALOGPS_LOGP>
3.83

> <JCHEM_LOGP>
4.77

> <ALOGPS_LOGS>
-4.7

> <JCHEM_POLARIZABILITY>
35.14

> <JCHEM_POLAR_SURFACE_AREA>
57.61

> <JCHEM_REFRACTIVITY>
90.51

> <JCHEM_ROTATABLE_BOND_COUNT>
7

> <ALOGPS_SOLUBILITY>
8.67e-03 g/l __ 

$$$$
