CPK
  Mrv0541 02241213312D          

 34 36  0  0  0  0            999 V2000
   -0.8302    5.9813    0.0000 O   0  0  0  0  0  0  0  0  0  0  0  0
   -1.1124    5.2061    0.0000 C   0  0  0  0  0  0  0  0  0  0  0  0
   -1.9248    5.0628    0.0000 O   0  0  0  0  0  0  0  0  0  0  0  0
   -0.5821    4.5741    0.0000 C   0  0  1  0  0  0  0  0  0  0  0  0
    0.1324    4.1616    0.0000 O   0  0  0  0  0  0  0  0  0  0  0  0
    0.1324    3.3366    0.0000 C   0  0  0  0  0  0  0  0  0  0  0  0
   -0.0518    5.2061    0.0000 C   0  0  0  0  0  0  0  0  0  0  0  0
   -1.2966    4.1616    0.0000 O   0  0  0  0  0  0  0  0  0  0  0  0
   -1.2966    3.3366    0.0000 C   0  0  0  0  0  0  0  0  0  0  0  0
   -0.5821    2.9241    0.0000 C   0  0  1  0  0  0  0  0  0  0  0  0
   -0.5821    2.0991    0.0000 O   0  0  0  0  0  0  0  0  0  0  0  0
    0.1324    1.6866    0.0000 C   0  0  0  0  0  0  0  0  0  0  0  0
    0.8469    2.0991    0.0000 O   0  0  0  0  0  0  0  0  0  0  0  0
    0.1324    0.8616    0.0000 N   0  0  0  0  0  0  0  0  0  0  0  0
    0.8469    0.4491    0.0000 C   0  0  0  0  0  0  0  0  0  0  0  0
    0.8469   -0.3759    0.0000 C   0  0  0  0  0  0  0  0  0  0  0  0
   -0.5821    0.4491    0.0000 C   0  0  0  0  0  0  0  0  0  0  0  0
   -0.5821   -0.3759    0.0000 C   0  0  0  0  0  0  0  0  0  0  0  0
    0.1324   -0.7884    0.0000 N   0  0  0  0  0  0  0  0  0  0  0  0
    0.1324   -1.6134    0.0000 C   0  0  0  0  0  0  0  0  0  0  0  0
   -0.5821   -2.0259    0.0000 O   0  0  0  0  0  0  0  0  0  0  0  0
    0.8469   -2.0259    0.0000 O   0  0  0  0  0  0  0  0  0  0  0  0
    0.8469   -2.8509    0.0000 C   0  0  1  0  0  0  0  0  0  0  0  0
    1.5613   -3.2634    0.0000 C   0  0  0  0  0  0  0  0  0  0  0  0
    1.5613   -4.0884    0.0000 O   0  0  0  0  0  0  0  0  0  0  0  0
    0.1324   -3.2634    0.0000 C   0  0  0  0  0  0  0  0  0  0  0  0
    0.1324   -4.0884    0.0000 O   0  0  0  0  0  0  0  0  0  0  0  0
    0.8469   -4.5009    0.0000 C   0  0  2  0  0  0  0  0  0  0  0  0
    1.2342   -5.2294    0.0000 C   0  0  0  0  0  0  0  0  0  0  0  0
    0.4595   -5.2294    0.0000 C   0  0  0  0  0  0  0  0  0  0  0  0
    0.8967   -5.9290    0.0000 O   0  0  0  0  0  0  0  0  0  0  0  0
   -0.3650   -5.2582    0.0000 O   0  0  0  0  0  0  0  0  0  0  0  0
   -0.0764    2.6321    0.0000 H   0  0  0  0  0  0  0  0  0  0  0  0
    1.3526   -2.5590    0.0000 H   0  0  0  0  0  0  0  0  0  0  0  0
  1  2  1  0  0  0  0
  2  3  2  0  0  0  0
  4  2  1  6  0  0  0
  4  5  1  0  0  0  0
  4  7  1  1  0  0  0
  4  8  1  0  0  0  0
  5  6  1  0  0  0  0
  6 10  1  0  0  0  0
  8  9  1  0  0  0  0
  9 10  1  0  0  0  0
 10 11  1  6  0  0  0
 10 33  1  1  0  0  0
 11 12  1  0  0  0  0
 12 13  2  0  0  0  0
 12 14  1  0  0  0  0
 14 15  1  0  0  0  0
 14 17  1  0  0  0  0
 15 16  1  0  0  0  0
 16 19  1  0  0  0  0
 17 18  1  0  0  0  0
 18 19  1  0  0  0  0
 19 20  1  0  0  0  0
 20 21  2  0  0  0  0
 20 22  1  0  0  0  0
 23 22  1  1  0  0  0
 23 24  1  0  0  0  0
 23 26  1  0  0  0  0
 23 34  1  6  0  0  0
 24 25  1  0  0  0  0
 25 28  1  0  0  0  0
 26 27  1  0  0  0  0
 27 28  1  0  0  0  0
 28 29  1  1  0  0  0
 28 30  1  6  0  0  0
 30 31  2  0  0  0  0
 30 32  1  0  0  0  0
M  END
> <DRUGBANK_ID>
DB07580

> <DRUG_GROUPS>
experimental

> <GENERIC_NAME>
BIS-1,2-{[(Z)-2CARBOXY-2-METHYL-1,3-DIOXANE]-5-YLOXYCARBONYL}-PIPERAZINE

> <CHEMICAL_FORMULA>
C18H26N2O12

> <MOLECULAR_WEIGHT>
462.4052

> <EXACT_MASS>
462.148574306

> <IUPAC_NAME>
(2s,5s)-2-methyl-5-{[4-({[(2r,5r)-2-carboxy-2-methyl-1,3-dioxan-5-yl]oxy}carbonyl)piperazin-1-yl]carbonyloxy}-1,3-dioxane-2-carboxylic acid

> <IUPAC_TRADITIONAL_NAME>
(2s,5s)-2-methyl-5-{[4-({[(2r,5r)-2-carboxy-2-methyl-1,3-dioxan-5-yl]oxy}carbonyl)piperazin-1-yl]carbonyloxy}-1,3-dioxane-2-carboxylic acid

> <INCHI_IDENTIFIER>
InChI=1S/C18H26N2O12/c1-17(13(21)22)27-7-11(8-28-17)31-15(25)19-3-5-20(6-4-19)16(26)32-12-9-29-18(2,14(23)24)30-10-12/h11-12H,3-10H2,1-2H3,(H,21,22)(H,23,24)/t11-,12-,17-,18+

> <INCHI_KEY>
InChIKey=GNQQJZKGGHOMBD-CCNNFCOFSA-N

> <SMILES>
[H][C@@]1(CO[C@@](C)(OC1)C(O)=O)OC(=O)N1CCN(CC1)C(=O)O[C@@]1([H])CO[C@](C)(OC1)C(O)=O

> <JCHEM_ACCEPTOR_COUNT>
10

> <JCHEM_DONOR_COUNT>
2

> <JCHEM_ACIDIC_PKA>
2.62

> <JCHEM_BASIC_PKA>
-3.8

> <JCHEM_PHYSIOLOGICAL_CHARGE>
-2

> <ALOGPS_LOGP>
-0.88

> <JCHEM_LOGP>
0.031

> <ALOGPS_LOGS>
-1.4

> <JCHEM_POLARIZABILITY>
43.16

> <JCHEM_POLAR_SURFACE_AREA>
170.6

> <JCHEM_REFRACTIVITY>
99.39

> <JCHEM_ROTATABLE_BOND_COUNT>
6

> <ALOGPS_SOLUBILITY>
1.83e+01 g/l __ 

$$$$
