52P
  Mrv0541 02241213132D          

 28 31  0  0  0  0            999 V2000
   -1.6833   -4.0755    0.0000 F    0  0  0  0  0  0  0  0  0  0  0  0
   -1.6833   -3.2505    0.0000 C    0  0  0  0  0  0  0  0  0  0  0  0
   -2.3978   -2.8380    0.0000 C    0  0  0  0  0  0  0  0  0  0  0  0
   -2.3978   -2.0130    0.0000 C    0  0  0  0  0  0  0  0  0  0  0  0
   -1.6833   -1.6005    0.0000 C    0  0  0  0  0  0  0  0  0  0  0  0
   -1.6833   -0.7755    0.0000 S    0  0  0  0  0  0  0  0  0  0  0  0
   -0.9688   -0.3630    0.0000 C    0  0  0  0  0  0  0  0  0  0  0  0
   -0.9688    0.4620    0.0000 C    0  0  0  0  0  0  0  0  0  0  0  0
   -0.2544    0.8745    0.0000 C    0  0  0  0  0  0  0  0  0  0  0  0
    0.4601    0.4620    0.0000 C    0  0  0  0  0  0  0  0  0  0  0  0
    1.1746    0.8745    0.0000 C    0  0  0  0  0  0  0  0  0  0  0  0
    1.1746    1.6995    0.0000 C    0  0  0  0  0  0  0  0  0  0  0  0
    0.4601    2.1120    0.0000 C    0  0  0  0  0  0  0  0  0  0  0  0
   -0.2544    1.6995    0.0000 Cl   0  0  0  0  0  0  0  0  0  0  0  0
    0.4601    2.9370    0.0000 C    0  0  0  0  0  0  0  0  0  0  0  0
    1.1746    3.3495    0.0000 C    0  0  0  0  0  0  0  0  0  0  0  0
    1.8891    2.9370    0.0000 C    0  0  0  0  0  0  0  0  0  0  0  0
    1.8891    2.1120    0.0000 C    0  0  0  0  0  0  0  0  0  0  0  0
    2.6035    1.6995    0.0000 Cl   0  0  0  0  0  0  0  0  0  0  0  0
    1.8891    0.4620    0.0000 C    0  0  0  0  0  0  0  0  0  0  0  0
    2.6035    0.8745    0.0000 O    0  0  0  0  0  0  0  0  0  0  0  0
    1.8891   -0.3630    0.0000 N    0  0  0  0  0  0  0  0  0  0  0  0
    1.1746   -0.7755    0.0000 C    0  0  0  0  0  0  0  0  0  0  0  0
    0.4601   -0.3630    0.0000 N    0  0  0  0  0  0  0  0  0  0  0  0
   -0.2544   -0.7755    0.0000 N    0  0  0  0  0  0  0  0  0  0  0  0
   -0.9688   -2.0130    0.0000 C    0  0  0  0  0  0  0  0  0  0  0  0
   -0.2544   -1.6005    0.0000 F    0  0  0  0  0  0  0  0  0  0  0  0
   -0.9688   -2.8380    0.0000 C    0  0  0  0  0  0  0  0  0  0  0  0
  2  1  1  0  0  0  0
  2  3  1  0  0  0  0
  4  3  2  0  0  0  0
  5  4  1  0  0  0  0
  6  5  1  0  0  0  0
  6  7  1  0  0  0  0
  7 25  2  0  0  0  0
  8  7  1  0  0  0  0
  8  9  2  0  0  0  0
  9 10  1  0  0  0  0
 10 11  2  0  0  0  0
 10 24  1  0  0  0  0
 11 20  1  0  0  0  0
 12 11  1  0  0  0  0
 12 13  1  0  0  0  0
 13 14  1  0  0  0  0
 15 13  2  0  0  0  0
 16 15  1  0  0  0  0
 17 16  2  0  0  0  0
 17 18  1  0  0  0  0
 18 12  2  0  0  0  0
 19 18  1  0  0  0  0
 20 21  2  0  0  0  0
 20 22  1  0  0  0  0
 23 22  2  0  0  0  0
 24 23  1  0  0  0  0
 25 24  1  0  0  0  0
 26  5  2  0  0  0  0
 26 28  1  0  0  0  0
 27 26  1  0  0  0  0
 28  2  2  0  0  0  0
M  END
> <DRUGBANK_ID>
DB07138

> <DRUG_GROUPS>
experimental

> <GENERIC_NAME>
5-(2,6-dichlorophenyl)-2-[(2,4-difluorophenyl)sulfanyl]-6H-pyrimido[1,6-b]pyridazin-6-one

> <CHEMICAL_FORMULA>
C19H9Cl2F2N3OS

> <MOLECULAR_WEIGHT>
436.262

> <EXACT_MASS>
434.981144439

> <IUPAC_NAME>
5-(2,6-dichlorophenyl)-2-[(2,4-difluorophenyl)sulfanyl]-6H-pyrimido[1,6-b]pyridazin-6-one

> <IUPAC_TRADITIONAL_NAME>
5-(2,6-dichlorophenyl)-2-[(2,4-difluorophenyl)sulfanyl]pyrimido[1,6-b]pyridazin-6-one

> <INCHI_IDENTIFIER>
InChI=1S/C19H9Cl2F2N3OS/c20-11-2-1-3-12(21)17(11)18-14-5-7-16(25-26(14)9-24-19(18)27)28-15-6-4-10(22)8-13(15)23/h1-9H

> <INCHI_KEY>
InChIKey=VEPKQEUBKLEPRA-UHFFFAOYSA-N

> <SMILES>
FC1=CC(F)=C(SC2=NN3C=NC(=O)C(=C3C=C2)C2=C(Cl)C=CC=C2Cl)C=C1

> <JCHEM_ACCEPTOR_COUNT>
4

> <JCHEM_DONOR_COUNT>
0

> <JCHEM_BASIC_PKA>
-3.2

> <JCHEM_PHYSIOLOGICAL_CHARGE>
0

> <ALOGPS_LOGP>
5.17

> <JCHEM_LOGP>
4.89

> <ALOGPS_LOGS>
-5.9

> <JCHEM_POLARIZABILITY>
38.75

> <JCHEM_POLAR_SURFACE_AREA>
45.03

> <JCHEM_REFRACTIVITY>
108.15

> <JCHEM_ROTATABLE_BOND_COUNT>
2

> <ALOGPS_SOLUBILITY>
5.59e-04 g/l __ 

$$$$
