D92
  Mrv0541 02241213332D          

 34 38  0  0  0  0            999 V2000
    0.0548   -4.8527    0.0000 Cl   0  0  0  0  0  0  0  0  0  0  0  0
    0.0548   -4.0277    0.0000 C    0  0  0  0  0  0  0  0  0  0  0  0
    0.7692   -3.6152    0.0000 C    0  0  0  0  0  0  0  0  0  0  0  0
    0.7692   -2.7902    0.0000 C    0  0  0  0  0  0  0  0  0  0  0  0
    0.0548   -2.3777    0.0000 C    0  0  0  0  0  0  0  0  0  0  0  0
   -0.1168   -1.5707    0.0000 N    0  0  0  0  0  0  0  0  0  0  0  0
   -0.6597   -3.6152    0.0000 C    0  0  0  0  0  0  0  0  0  0  0  0
   -0.6597   -2.7902    0.0000 C    0  0  0  0  0  0  0  0  0  0  0  0
   -1.2728   -2.2382    0.0000 C    0  0  0  0  0  0  0  0  0  0  0  0
   -0.9372   -1.4845    0.0000 C    0  0  0  0  0  0  0  0  0  0  0  0
   -1.3497   -0.7700    0.0000 C    0  0  0  0  0  0  0  0  0  0  0  0
   -2.1747   -0.7700    0.0000 O    0  0  0  0  0  0  0  0  0  0  0  0
   -0.9372   -0.0556    0.0000 N    0  0  0  0  0  0  0  0  0  0  0  0
   -1.3497    0.6589    0.0000 C    0  0  1  0  0  0  0  0  0  0  0  0
   -2.1747    0.6589    0.0000 C    0  0  0  0  0  0  0  0  0  0  0  0
   -2.5872    1.3734    0.0000 C    0  0  0  0  0  0  0  0  0  0  0  0
   -2.1747    2.0879    0.0000 C    0  0  0  0  0  0  0  0  0  0  0  0
   -1.3497    2.0879    0.0000 C    0  0  0  0  0  0  0  0  0  0  0  0
   -0.9372    1.3734    0.0000 C    0  0  1  0  0  0  0  0  0  0  0  0
   -0.1122    1.3734    0.0000 N    0  0  0  0  0  0  0  0  0  0  0  0
    0.3003    2.0879    0.0000 C    0  0  0  0  0  0  0  0  0  0  0  0
   -0.1122    2.8023    0.0000 O    0  0  0  0  0  0  0  0  0  0  0  0
    1.1253    2.0879    0.0000 C    0  0  0  0  0  0  0  0  0  0  0  0
    1.6102    2.7553    0.0000 S    0  0  0  0  0  0  0  0  0  0  0  0
    2.3948    2.5004    0.0000 C    0  0  0  0  0  0  0  0  0  0  0  0
    3.1093    2.9129    0.0000 C    0  0  0  0  0  0  0  0  0  0  0  0
    3.8237    2.5004    0.0000 N    0  0  0  0  0  0  0  0  0  0  0  0
    4.5382    2.9129    0.0000 C    0  0  0  0  0  0  0  0  0  0  0  0
    3.8237    1.6754    0.0000 C    0  0  0  0  0  0  0  0  0  0  0  0
    3.1093    1.2629    0.0000 C    0  0  0  0  0  0  0  0  0  0  0  0
    2.3948    1.6754    0.0000 C    0  0  0  0  0  0  0  0  0  0  0  0
    1.6102    1.4204    0.0000 N    0  0  0  0  0  0  0  0  0  0  0  0
   -1.6417    0.1532    0.0000 H    0  0  0  0  0  0  0  0  0  0  0  0
   -0.6453    0.8677    0.0000 H    0  0  0  0  0  0  0  0  0  0  0  0
  1  2  1  0  0  0  0
  2  7  2  0  0  0  0
  2  3  1  0  0  0  0
  3  4  2  0  0  0  0
  4  5  1  0  0  0  0
  5  8  2  0  0  0  0
  5  6  1  0  0  0  0
  6 10  1  0  0  0  0
  7  8  1  0  0  0  0
  8  9  1  0  0  0  0
  9 10  2  0  0  0  0
 10 11  1  0  0  0  0
 11 13  1  0  0  0  0
 11 12  2  0  0  0  0
 14 13  1  1  0  0  0
 14 15  1  0  0  0  0
 14 19  1  0  0  0  0
 14 33  1  6  0  0  0
 15 16  1  0  0  0  0
 16 17  1  0  0  0  0
 17 18  1  0  0  0  0
 18 19  1  0  0  0  0
 19 20  1  1  0  0  0
 19 34  1  6  0  0  0
 20 21  1  0  0  0  0
 21 23  1  0  0  0  0
 21 22  2  0  0  0  0
 23 32  2  0  0  0  0
 23 24  1  0  0  0  0
 24 25  1  0  0  0  0
 25 26  1  0  0  0  0
 25 31  2  0  0  0  0
 26 27  1  0  0  0  0
 27 28  1  0  0  0  0
 27 29  1  0  0  0  0
 29 30  1  0  0  0  0
 30 31  1  0  0  0  0
 31 32  1  0  0  0  0
M  END
> <DRUGBANK_ID>
DB07629

> <DRUG_GROUPS>
experimental

> <GENERIC_NAME>
N-((1R,2S)-2-(5-CHLORO-1H-INDOLE-2-CARBOXAMIDO)CYCLOHEXYL)-5-METHYL-4,5,6,7-TETRAHYDROTHIAZOLO[5,4-C]PYRIDINE-2-CARBOXAMIDE

> <CHEMICAL_FORMULA>
C23H26ClN5O2S

> <MOLECULAR_WEIGHT>
472.003

> <EXACT_MASS>
471.149573498

> <IUPAC_NAME>
5-chloro-N-[(1S,2R)-2-{5-methyl-4H,5H,6H,7H-[1,3]thiazolo[5,4-c]pyridine-2-amido}cyclohexyl]-1H-indole-2-carboxamide

> <IUPAC_TRADITIONAL_NAME>
5-chloro-N-[(1S,2R)-2-{5-methyl-4H,6H,7H-[1,3]thiazolo[5,4-c]pyridine-2-amido}cyclohexyl]-1H-indole-2-carboxamide

> <INCHI_IDENTIFIER>
InChI=1S/C23H26ClN5O2S/c1-29-9-8-18-20(12-29)32-23(28-18)22(31)27-17-5-3-2-4-16(17)26-21(30)19-11-13-10-14(24)6-7-15(13)25-19/h6-7,10-11,16-17,25H,2-5,8-9,12H2,1H3,(H,26,30)(H,27,31)/t16-,17+/m0/s1

> <INCHI_KEY>
InChIKey=ARPFWVKYXJZULB-DLBZAZTESA-N

> <SMILES>
[H][C@@]1(CCCC[C@@]1([H])NC(=O)C1=NC2=C(CN(C)CC2)S1)NC(=O)C1=CC2=C(N1)C=CC(Cl)=C2

> <JCHEM_ACCEPTOR_COUNT>
4

> <JCHEM_DONOR_COUNT>
3

> <JCHEM_ACIDIC_PKA>
11.98

> <JCHEM_BASIC_PKA>
6.61

> <JCHEM_PHYSIOLOGICAL_CHARGE>
0

> <ALOGPS_LOGP>
3.19

> <JCHEM_LOGP>
3.14

> <ALOGPS_LOGS>
-5

> <JCHEM_POLARIZABILITY>
51.19

> <JCHEM_POLAR_SURFACE_AREA>
90.12

> <JCHEM_REFRACTIVITY>
125.69

> <JCHEM_ROTATABLE_BOND_COUNT>
4

> <ALOGPS_SOLUBILITY>
4.45e-03 g/l __ 

$$$$
