A94
  Mrv0541 02241213212D          

 27 29  0  0  0  0            999 V2000
   -3.8625   -1.6288    0.0000 C   0  0  0  0  0  0  0  0  0  0  0  0
   -4.1981   -0.8751    0.0000 N   0  0  0  0  0  0  0  0  0  0  0  0
   -3.7131   -0.2077    0.0000 C   0  0  0  0  0  0  0  0  0  0  0  0
   -2.8927   -0.2939    0.0000 N   0  0  0  0  0  0  0  0  0  0  0  0
   -2.5571   -1.0476    0.0000 C   0  0  0  0  0  0  0  0  0  0  0  0
   -3.0420   -1.7150    0.0000 C   0  0  0  0  0  0  0  0  0  0  0  0
   -4.3474   -2.2962    0.0000 C   0  0  0  0  0  0  0  0  0  0  0  0
   -4.0487    0.5460    0.0000 N   0  0  0  0  0  0  0  0  0  0  0  0
   -1.7366   -1.1338    0.0000 C   0  0  0  0  0  0  0  0  0  0  0  0
   -1.2517   -0.4664    0.0000 N   0  0  0  0  0  0  0  0  0  0  0  0
   -0.4312   -0.5526    0.0000 S   0  0  0  0  0  0  0  0  0  0  0  0
   -0.5175   -1.3731    0.0000 O   0  0  0  0  0  0  0  0  0  0  0  0
   -0.3450    0.2678    0.0000 O   0  0  0  0  0  0  0  0  0  0  0  0
    3.8975    2.4605    0.0000 C   0  0  0  0  0  0  0  0  0  0  0  0
    3.2301    1.9756    0.0000 C   0  0  0  0  0  0  0  0  0  0  0  0
    3.4850    1.1910    0.0000 C   0  0  0  0  0  0  0  0  0  0  0  0
    4.3100    1.1910    0.0000 C   0  0  0  0  0  0  0  0  0  0  0  0
    4.5649    1.9756    0.0000 O   0  0  0  0  0  0  0  0  0  0  0  0
    4.7949    0.5235    0.0000 O   0  0  0  0  0  0  0  0  0  0  0  0
    3.0001    0.5235    0.0000 C   0  0  0  0  0  0  0  0  0  0  0  0
    2.1796    0.6098    0.0000 N   0  0  0  0  0  0  0  0  0  0  0  0
    1.6947   -0.0577    0.0000 C   0  0  0  0  0  0  0  0  0  0  0  0
    2.0302   -0.8113    0.0000 C   0  0  0  0  0  0  0  0  0  0  0  0
    1.5453   -1.4788    0.0000 C   0  0  0  0  0  0  0  0  0  0  0  0
    0.7248   -1.3925    0.0000 C   0  0  0  0  0  0  0  0  0  0  0  0
    0.3893   -0.6389    0.0000 C   0  0  0  0  0  0  0  0  0  0  0  0
    0.8742    0.0286    0.0000 C   0  0  0  0  0  0  0  0  0  0  0  0
  1  2  2  0  0  0  0
  1  6  1  0  0  0  0
  1  7  1  0  0  0  0
  2  3  1  0  0  0  0
  3  8  1  0  0  0  0
  3  4  2  0  0  0  0
  4  5  1  0  0  0  0
  5  9  1  0  0  0  0
  5  6  2  0  0  0  0
  9 10  1  0  0  0  0
 10 11  1  0  0  0  0
 11 12  2  0  0  0  0
 11 26  1  0  0  0  0
 11 13  2  0  0  0  0
 14 18  1  0  0  0  0
 14 15  1  0  0  0  0
 15 16  1  0  0  0  0
 16 20  2  0  0  0  0
 16 17  1  0  0  0  0
 17 19  2  0  0  0  0
 17 18  1  0  0  0  0
 20 21  1  0  0  0  0
 21 22  1  0  0  0  0
 22 23  2  0  0  0  0
 22 27  1  0  0  0  0
 23 24  1  0  0  0  0
 24 25  2  0  0  0  0
 25 26  1  0  0  0  0
 26 27  2  0  0  0  0
M  END
> <DRUGBANK_ID>
DB07325

> <DRUG_GROUPS>
experimental

> <GENERIC_NAME>
N-[(2-AMINO-6-METHYLPYRIMIDIN-4-YL)METHYL]-3-{[(E)-(2-OXODIHYDROFURAN-3(2H)-YLIDENE)METHYL]AMINO}BENZENESULFONAMIDE

> <CHEMICAL_FORMULA>
C17H19N5O4S

> <MOLECULAR_WEIGHT>
389.429

> <EXACT_MASS>
389.115774811

> <IUPAC_NAME>
N-[(2-amino-6-methylpyrimidin-4-yl)methyl]-3-({[(3E)-2-oxooxolan-3-ylidene]methyl}amino)benzene-1-sulfonamide

> <IUPAC_TRADITIONAL_NAME>
N-[(2-amino-6-methylpyrimidin-4-yl)methyl]-3-({[(3E)-2-oxooxolan-3-ylidene]methyl}amino)benzenesulfonamide

> <INCHI_IDENTIFIER>
InChI=1S/C17H19N5O4S/c1-11-7-14(22-17(18)21-11)10-20-27(24,25)15-4-2-3-13(8-15)19-9-12-5-6-26-16(12)23/h2-4,7-9,19-20H,5-6,10H2,1H3,(H2,18,21,22)/b12-9+

> <INCHI_KEY>
InChIKey=VCOKUBHAJVTVNG-FMIVXFBMSA-N

> <SMILES>
CC1=NC(N)=NC(CNS(=O)(=O)C2=CC(N\C=C3/CCOC3=O)=CC=C2)=C1

> <JCHEM_ACCEPTOR_COUNT>
7

> <JCHEM_DONOR_COUNT>
3

> <JCHEM_ACIDIC_PKA>
9.69

> <JCHEM_BASIC_PKA>
4.02

> <JCHEM_PHYSIOLOGICAL_CHARGE>
0

> <ALOGPS_LOGP>
0.55

> <JCHEM_LOGP>
0.37

> <ALOGPS_LOGS>
-3.4

> <JCHEM_POLARIZABILITY>
39.63

> <JCHEM_POLAR_SURFACE_AREA>
136.3

> <JCHEM_REFRACTIVITY>
101.7

> <JCHEM_ROTATABLE_BOND_COUNT>
5

> <ALOGPS_SOLUBILITY>
1.50e-01 g/l __ 

$$$$
