3FP
  Mrv0541 02241213102D          

 34 36  0  0  0  0            999 V2000
   -1.5881    1.4145    0.0000 C   0  0  0  0  0  0  0  0  0  0  0  0
   -3.0170    0.5895    0.0000 N   0  0  0  0  0  0  0  0  0  0  0  0
   -1.5881    0.5895    0.0000 C   0  0  0  0  0  0  0  0  0  0  0  0
   -0.8736    4.3020    0.0000 C   0  0  0  0  0  0  0  0  0  0  0  0
   -0.1591    3.8895    0.0000 C   0  0  0  0  0  0  0  0  0  0  0  0
   -0.1591    3.0645    0.0000 C   0  0  0  0  0  0  0  0  0  0  0  0
   -0.8736    2.6520    0.0000 C   0  0  0  0  0  0  0  0  0  0  0  0
   -2.3026    0.1770    0.0000 C   0  0  0  0  0  0  0  0  0  0  0  0
   -1.5881   -1.8855    0.0000 C   0  0  0  0  0  0  0  0  0  0  0  0
   -1.5881   -1.0605    0.0000 C   0  0  0  0  0  0  0  0  0  0  0  0
   -1.5881    3.0645    0.0000 C   0  0  0  0  0  0  0  0  0  0  0  0
   -1.5881    3.8895    0.0000 C   0  0  0  0  0  0  0  0  0  0  0  0
   -0.8736   -2.2980    0.0000 C   0  0  0  0  0  0  0  0  0  0  0  0
    1.2698   -1.8855    0.0000 C   0  0  0  0  0  0  0  0  0  0  0  0
   -0.1591   -1.0605    0.0000 C   0  0  0  0  0  0  0  0  0  0  0  0
   -0.1591   -1.8855    0.0000 C   0  0  0  0  0  0  0  0  0  0  0  0
   -0.8736   -0.6480    0.0000 C   0  0  0  0  0  0  0  0  0  0  0  0
   -3.0170    1.4145    0.0000 C   0  0  0  0  0  0  0  0  0  0  0  0
   -2.3026    1.8270    0.0000 N   0  0  0  0  0  0  0  0  0  0  0  0
   -0.8736    1.8270    0.0000 N   0  0  0  0  0  0  0  0  0  0  0  0
    0.5553    2.6520    0.0000 F   0  0  0  0  0  0  0  0  0  0  0  0
   -2.3026   -0.6480    0.0000 N   0  0  0  0  0  0  0  0  0  0  0  0
    0.5553   -2.2980    0.0000 O   0  0  0  0  0  0  0  0  0  0  0  0
   -2.3026    4.3020    0.0000 C   0  0  0  0  0  0  0  0  0  0  0  0
   -3.0170    4.7145    0.0000 F   0  0  0  0  0  0  0  0  0  0  0  0
   -2.7151    3.5875    0.0000 F   0  0  0  0  0  0  0  0  0  0  0  0
   -1.8901    5.0164    0.0000 F   0  0  0  0  0  0  0  0  0  0  0  0
    1.9843   -2.2980    0.0000 C   0  0  1  0  0  0  0  0  0  0  0  0
    2.6987   -1.8855    0.0000 C   0  0  0  0  0  0  0  0  0  0  0  0
    4.1277   -1.8855    0.0000 C   0  0  0  0  0  0  0  0  0  0  0  0
    3.4132   -3.1230    0.0000 C   0  0  0  0  0  0  0  0  0  0  0  0
    3.4132   -2.2980    0.0000 N   0  0  0  0  0  0  0  0  0  0  0  0
    1.9843   -3.1230    0.0000 O   0  0  0  0  0  0  0  0  0  0  0  0
    1.9843   -1.7141    0.0000 H   0  0  0  0  0  0  0  0  0  0  0  0
  1  3  2  0  0  0  0
  1 19  1  0  0  0  0
  1 20  1  0  0  0  0
  2  8  2  0  0  0  0
  2 18  1  0  0  0  0
  3  8  1  0  0  0  0
  4  5  2  0  0  0  0
  4 12  1  0  0  0  0
  5  6  1  0  0  0  0
  6  7  2  0  0  0  0
  6 21  1  0  0  0  0
  7 11  1  0  0  0  0
  7 20  1  0  0  0  0
  8 22  1  0  0  0  0
  9 10  2  0  0  0  0
  9 13  1  0  0  0  0
 10 17  1  0  0  0  0
 10 22  1  0  0  0  0
 11 12  2  0  0  0  0
 12 24  1  0  0  0  0
 13 16  2  0  0  0  0
 14 23  1  0  0  0  0
 14 28  1  0  0  0  0
 15 16  1  0  0  0  0
 15 17  2  0  0  0  0
 16 23  1  0  0  0  0
 18 19  2  0  0  0  0
 24 25  1  0  0  0  0
 24 26  1  0  0  0  0
 24 27  1  0  0  0  0
 28 29  1  0  0  0  0
 28 33  1  6  0  0  0
 28 34  1  6  0  0  0
 29 32  1  0  0  0  0
 30 32  1  0  0  0  0
 31 32  1  0  0  0  0
M  END
> <DRUGBANK_ID>
DB07054

> <DRUG_GROUPS>
experimental

> <GENERIC_NAME>
(2R)-1-(DIMETHYLAMINO)-3-{4-[(6-{[2-FLUORO-5-(TRIFLUOROMETHYL)PHENYL]AMINO}PYRIMIDIN-4-YL)AMINO]PHENOXY}PROPAN-2-OL

> <CHEMICAL_FORMULA>
C22H23F4N5O2

> <MOLECULAR_WEIGHT>
465.4439

> <EXACT_MASS>
465.178787825

> <IUPAC_NAME>
4-N-{4-[(2R)-3-(dimethylamino)-2-hydroxypropoxy]phenyl}-6-N-[2-fluoro-5-(trifluoromethyl)phenyl]pyrimidine-4,6-diamine

> <IUPAC_TRADITIONAL_NAME>
4-N-{4-[(2R)-3-(dimethylamino)-2-hydroxypropoxy]phenyl}-6-N-[2-fluoro-5-(trifluoromethyl)phenyl]pyrimidine-4,6-diamine

> <INCHI_IDENTIFIER>
InChI=1S/C22H23F4N5O2/c1-31(2)11-16(32)12-33-17-6-4-15(5-7-17)29-20-10-21(28-13-27-20)30-19-9-14(22(24,25)26)3-8-18(19)23/h3-10,13,16,32H,11-12H2,1-2H3,(H2,27,28,29,30)/t16-/m1/s1

> <INCHI_KEY>
InChIKey=OSCWQKTUILTARV-MRXNPFEDSA-N

> <SMILES>
[H][C@](O)(COC1=CC=C(NC2=NC=NC(NC3=C(F)C=CC(=C3)C(F)(F)F)=C2)C=C1)CN(C)C

> <JCHEM_ACCEPTOR_COUNT>
7

> <JCHEM_DONOR_COUNT>
3

> <JCHEM_ACIDIC_PKA>
13.22

> <JCHEM_BASIC_PKA>
8.7

> <JCHEM_PHYSIOLOGICAL_CHARGE>
1

> <ALOGPS_LOGP>
3.73

> <JCHEM_LOGP>
4.37

> <ALOGPS_LOGS>
-4.3

> <JCHEM_POLARIZABILITY>
45.07

> <JCHEM_POLAR_SURFACE_AREA>
82.54

> <JCHEM_REFRACTIVITY>
116.96

> <JCHEM_ROTATABLE_BOND_COUNT>
10

> <ALOGPS_SOLUBILITY>
2.55e-02 g/l __ 

$$$$
