AED
  Mrv0541 02241213222D          

 16 17  0  0  0  0            999 V2000
   -0.8034   -0.8844    0.0000 C   0  0  0  0  0  0  0  0  0  0  0  0
    1.3400   -0.4719    0.0000 C   0  0  0  0  0  0  0  0  0  0  0  0
    0.6255   -1.7094    0.0000 C   0  0  0  0  0  0  0  0  0  0  0  0
   -0.8034    0.7656    0.0000 C   0  0  0  0  0  0  0  0  0  0  0  0
   -1.5179   -0.4719    0.0000 C   0  0  0  0  0  0  0  0  0  0  0  0
    2.0545   -0.8844    0.0000 C   0  0  0  0  0  0  0  0  0  0  0  0
   -0.8034    1.5906    0.0000 C   0  0  0  0  0  0  0  0  0  0  0  0
   -1.5179    2.0031    0.0000 C   0  0  0  0  0  0  0  0  0  0  0  0
   -0.8034   -1.7094    0.0000 O   0  0  0  0  0  0  0  0  0  0  0  0
   -1.5179    0.3531    0.0000 C   0  0  0  0  0  0  0  0  0  0  0  0
   -1.5179    2.8281    0.0000 N   0  0  0  0  0  0  0  0  0  0  0  0
   -0.0889    0.3531    0.0000 C   0  0  0  0  0  0  0  0  0  0  0  0
   -0.0889   -0.4719    0.0000 C   0  0  0  0  0  0  0  0  0  0  0  0
    0.6255   -0.8844    0.0000 C   0  0  0  0  0  0  0  0  0  0  0  0
    2.0545   -1.7094    0.0000 C   0  0  0  0  0  0  0  0  0  0  0  0
    1.3400   -2.1219    0.0000 C   0  0  0  0  0  0  0  0  0  0  0  0
  1  5  2  0  0  0  0
  1  9  1  0  0  0  0
  1 13  1  0  0  0  0
  2  6  1  0  0  0  0
  2 14  1  0  0  0  0
  3 14  1  0  0  0  0
  3 16  1  0  0  0  0
  4  7  1  0  0  0  0
  4 10  2  0  0  0  0
  4 12  1  0  0  0  0
  5 10  1  0  0  0  0
  6 15  1  0  0  0  0
  7  8  1  0  0  0  0
  8 11  1  0  0  0  0
 12 13  2  0  0  0  0
 13 14  1  0  0  0  0
 15 16  1  0  0  0  0
M  END
> <DRUGBANK_ID>
DB07345

> <DRUG_GROUPS>
experimental

> <GENERIC_NAME>
4-(2-aminoethyl)-2-cyclohexylphenol

> <CHEMICAL_FORMULA>
C14H21NO

> <MOLECULAR_WEIGHT>
219.3226

> <EXACT_MASS>
219.162314299

> <IUPAC_NAME>
4-(2-aminoethyl)-2-cyclohexylphenol

> <IUPAC_TRADITIONAL_NAME>
4-(2-aminoethyl)-2-cyclohexylphenol

> <INCHI_IDENTIFIER>
InChI=1S/C14H21NO/c15-9-8-11-6-7-14(16)13(10-11)12-4-2-1-3-5-12/h6-7,10,12,16H,1-5,8-9,15H2

> <INCHI_KEY>
InChIKey=DOCCSEDGBYCYLS-UHFFFAOYSA-N

> <SMILES>
NCCC1=CC=C(O)C(=C1)C1CCCCC1

> <JCHEM_ACCEPTOR_COUNT>
2

> <JCHEM_DONOR_COUNT>
2

> <JCHEM_ACIDIC_PKA>
10.77

> <JCHEM_BASIC_PKA>
9.76

> <JCHEM_PHYSIOLOGICAL_CHARGE>
1

> <ALOGPS_LOGP>
3.34

> <JCHEM_LOGP>
2.9

> <ALOGPS_LOGS>
-3.7

> <JCHEM_POLARIZABILITY>
26.34

> <JCHEM_POLAR_SURFACE_AREA>
46.25

> <JCHEM_REFRACTIVITY>
67.46

> <JCHEM_ROTATABLE_BOND_COUNT>
3

> <ALOGPS_SOLUBILITY>
4.51e-02 g/l __ 

$$$$
