GVN
  Mrv0541 02241213412D          

 22 24  0  0  0  0            999 V2000
    2.3209    0.3097    0.0000 N    0  0  0  0  0  0  0  0  0  0  0  0
    1.6064    0.7222    0.0000 C    0  0  0  0  0  0  0  0  0  0  0  0
    0.8919    0.3097    0.0000 C    0  0  1  0  0  0  0  0  0  0  0  0
    0.1774    0.7222    0.0000 C    0  0  0  0  0  0  0  0  0  0  0  0
   -0.5370    0.3097    0.0000 C    0  0  0  0  0  0  0  0  0  0  0  0
   -1.2515    0.7222    0.0000 C    0  0  0  0  0  0  0  0  0  0  0  0
   -1.2515    1.5472    0.0000 C    0  0  0  0  0  0  0  0  0  0  0  0
   -1.9660    1.9597    0.0000 Cl   0  0  0  0  0  0  0  0  0  0  0  0
   -0.5370    1.9597    0.0000 C    0  0  0  0  0  0  0  0  0  0  0  0
    0.1774    1.5472    0.0000 C    0  0  0  0  0  0  0  0  0  0  0  0
    0.8919   -0.5153    0.0000 C    0  0  0  0  0  0  0  0  0  0  0  0
    1.6064   -0.9278    0.0000 C    0  0  0  0  0  0  0  0  0  0  0  0
    1.6064   -1.7528    0.0000 C    0  0  0  0  0  0  0  0  0  0  0  0
    0.8919   -2.1653    0.0000 C    0  0  0  0  0  0  0  0  0  0  0  0
    0.1774   -1.7528    0.0000 C    0  0  0  0  0  0  0  0  0  0  0  0
    0.1774   -0.9278    0.0000 C    0  0  0  0  0  0  0  0  0  0  0  0
    0.8919   -2.9903    0.0000 C    0  0  0  0  0  0  0  0  0  0  0  0
    1.5594   -3.4753    0.0000 C    0  0  0  0  0  0  0  0  0  0  0  0
    1.3044   -4.2599    0.0000 N    0  0  0  0  0  0  0  0  0  0  0  0
    0.4794   -4.2599    0.0000 N    0  0  0  0  0  0  0  0  0  0  0  0
    0.2245   -3.4753    0.0000 C    0  0  0  0  0  0  0  0  0  0  0  0
    0.8919    0.8936    0.0000 H    0  0  0  0  0  0  0  0  0  0  0  0
  1  2  1  0  0  0  0
  2  3  1  0  0  0  0
  3  4  1  0  0  0  0
  3 11  1  1  0  0  0
  3 22  1  1  0  0  0
  4  5  1  0  0  0  0
  4 10  2  0  0  0  0
  5  6  2  0  0  0  0
  6  7  1  0  0  0  0
  7  8  1  0  0  0  0
  7  9  2  0  0  0  0
  9 10  1  0  0  0  0
 11 12  1  0  0  0  0
 11 16  2  0  0  0  0
 12 13  2  0  0  0  0
 13 14  1  0  0  0  0
 14 15  2  0  0  0  0
 14 17  1  0  0  0  0
 15 16  1  0  0  0  0
 17 18  2  0  0  0  0
 17 21  1  0  0  0  0
 18 19  1  0  0  0  0
 19 20  1  0  0  0  0
 20 21  2  0  0  0  0
M  END
> <DRUGBANK_ID>
DB07857

> <DRUG_GROUPS>
experimental

> <GENERIC_NAME>
(2R)-2-(4-CHLOROPHENYL)-2-[4-(1H-PYRAZOL-4-YL)PHENYL]ETHANAMINE

> <CHEMICAL_FORMULA>
C17H16ClN3

> <MOLECULAR_WEIGHT>
297.782

> <EXACT_MASS>
297.103275234

> <IUPAC_NAME>
(2R)-2-(4-chlorophenyl)-2-[4-(1H-pyrazol-4-yl)phenyl]ethan-1-amine

> <IUPAC_TRADITIONAL_NAME>
(2R)-2-(4-chlorophenyl)-2-[4-(1H-pyrazol-4-yl)phenyl]ethanamine

> <INCHI_IDENTIFIER>
InChI=1S/C17H16ClN3/c18-16-7-5-14(6-8-16)17(9-19)13-3-1-12(2-4-13)15-10-20-21-11-15/h1-8,10-11,17H,9,19H2,(H,20,21)/t17-/m1/s1

> <INCHI_KEY>
InChIKey=HWVGILTYGZFGLR-QGZVFWFLSA-N

> <SMILES>
[H][C@](CN)(C1=CC=C(Cl)C=C1)C1=CC=C(C=C1)C1=CNN=C1

> <JCHEM_ACCEPTOR_COUNT>
2

> <JCHEM_DONOR_COUNT>
2

> <JCHEM_ACIDIC_PKA>
14.63

> <JCHEM_BASIC_PKA>
9.68

> <JCHEM_PHYSIOLOGICAL_CHARGE>
1

> <ALOGPS_LOGP>
3.74

> <JCHEM_LOGP>
3.44

> <ALOGPS_LOGS>
-5

> <JCHEM_POLARIZABILITY>
32.23

> <JCHEM_POLAR_SURFACE_AREA>
54.7

> <JCHEM_REFRACTIVITY>
87.48

> <JCHEM_ROTATABLE_BOND_COUNT>
4

> <ALOGPS_SOLUBILITY>
3.14e-03 g/l __ 

$$$$
