73Q
  Mrv0541 02241213172D          

 18 20  0  0  0  0            999 V2000
   -1.2177   -1.4445    0.0000 C    0  0  0  0  0  0  0  0  0  0  0  0
   -0.9627   -0.6599    0.0000 C    0  0  0  0  0  0  0  0  0  0  0  0
   -1.4476    0.0076    0.0000 N    0  0  0  0  0  0  0  0  0  0  0  0
   -0.9627    0.6750    0.0000 N    0  0  0  0  0  0  0  0  0  0  0  0
   -1.2177    1.4596    0.0000 C    0  0  0  0  0  0  0  0  0  0  0  0
   -0.1781    0.4201    0.0000 C    0  0  0  0  0  0  0  0  0  0  0  0
    0.5364    0.8326    0.0000 N    0  0  0  0  0  0  0  0  0  0  0  0
    0.5364    1.6576    0.0000 O    0  0  0  0  0  0  0  0  0  0  0  0
    1.2508    0.4201    0.0000 C    0  0  0  0  0  0  0  0  0  0  0  0
    1.9653    0.8326    0.0000 C    0  0  0  0  0  0  0  0  0  0  0  0
    2.6798    0.4201    0.0000 C    0  0  0  0  0  0  0  0  0  0  0  0
    2.6798   -0.4049    0.0000 C    0  0  0  0  0  0  0  0  0  0  0  0
    3.3943   -0.8174    0.0000 Cl   0  0  0  0  0  0  0  0  0  0  0  0
    1.9653   -0.8174    0.0000 C    0  0  0  0  0  0  0  0  0  0  0  0
    1.2508   -0.4049    0.0000 C    0  0  0  0  0  0  0  0  0  0  0  0
    0.5364   -0.8174    0.0000 C    0  0  0  0  0  0  0  0  0  0  0  0
    0.5364   -1.6424    0.0000 O    0  0  0  0  0  0  0  0  0  0  0  0
   -0.1781   -0.4049    0.0000 C    0  0  0  0  0  0  0  0  0  0  0  0
  1  2  1  0  0  0  0
  2  3  2  0  0  0  0
  2 18  1  0  0  0  0
  3  4  1  0  0  0  0
  4  5  1  0  0  0  0
  4  6  1  0  0  0  0
  6  7  1  0  0  0  0
  6 18  2  0  0  0  0
  7  8  1  0  0  0  0
  7  9  1  0  0  0  0
  9 10  1  0  0  0  0
  9 15  2  0  0  0  0
 10 11  2  0  0  0  0
 11 12  1  0  0  0  0
 12 13  1  0  0  0  0
 12 14  2  0  0  0  0
 14 15  1  0  0  0  0
 15 16  1  0  0  0  0
 16 17  2  0  0  0  0
 16 18  1  0  0  0  0
M  END
> <DRUGBANK_ID>
DB07218

> <DRUG_GROUPS>
experimental

> <GENERIC_NAME>
6-CHLORO-9-HYDROXY-1,3-DIMETHYL-1,9-DIHYDRO-4H-PYRAZOLO[3,4-B]QUINOLIN-4-ONE

> <CHEMICAL_FORMULA>
C12H10ClN3O2

> <MOLECULAR_WEIGHT>
263.68

> <EXACT_MASS>
263.046154286

> <IUPAC_NAME>
6-chloro-9-hydroxy-1,3-dimethyl-1H,4H,9H-pyrazolo[3,4-b]quinolin-4-one

> <IUPAC_TRADITIONAL_NAME>
6-chloro-9-hydroxy-1,3-dimethylpyrazolo[3,4-b]quinolin-4-one

> <INCHI_IDENTIFIER>
InChI=1S/C12H10ClN3O2/c1-6-10-11(17)8-5-7(13)3-4-9(8)16(18)12(10)15(2)14-6/h3-5,18H,1-2H3

> <INCHI_KEY>
InChIKey=AYKGPCNWPACUQV-UHFFFAOYSA-N

> <SMILES>
CN1N=C(C)C2=C1N(O)C1=C(C=C(Cl)C=C1)C2=O

> <JCHEM_ACCEPTOR_COUNT>
4

> <JCHEM_DONOR_COUNT>
1

> <JCHEM_ACIDIC_PKA>
13.37

> <JCHEM_BASIC_PKA>
0.21

> <JCHEM_PHYSIOLOGICAL_CHARGE>
0

> <ALOGPS_LOGP>
1.83

> <JCHEM_LOGP>
0.75

> <ALOGPS_LOGS>
-2.2

> <JCHEM_POLARIZABILITY>
25.9

> <JCHEM_POLAR_SURFACE_AREA>
58.36

> <JCHEM_REFRACTIVITY>
88.7

> <JCHEM_ROTATABLE_BOND_COUNT>
0

> <ALOGPS_SOLUBILITY>
1.48e+00 g/l __ 

$$$$
