GA3
  Mrv0541 02241213402D          

 29 33  0  0  0  0            999 V2000
   -1.5031   -1.6016    0.0000 O   0  0  0  0  0  0  0  0  0  0  0  0
   -0.6820   -1.5976    0.0000 C   0  0  0  0  0  0  0  0  0  0  0  0
   -0.2679   -2.3066    0.0000 O   0  0  0  0  0  0  0  0  0  0  0  0
   -0.2750   -0.8845    0.0000 C   0  0  1  0  0  0  0  0  0  0  0  0
    0.5503   -0.8131    0.0000 C   0  0  1  0  0  0  0  0  0  0  0  0
   -0.6379   -0.1276    0.0000 C   0  0  1  0  0  0  0  0  0  0  0  0
   -1.4871   -0.3974    0.0000 C   0  0  0  0  0  0  0  0  0  0  0  0
   -2.0336    0.2833    0.0000 C   0  0  0  0  0  0  0  0  0  0  0  0
   -2.8541    0.2514    0.0000 C   0  0  0  0  0  0  0  0  0  0  0  0
   -1.5509    0.9910    0.0000 C   0  0  2  0  0  0  0  0  0  0  0  0
   -1.0515    0.4451    0.0000 C   0  0  0  0  0  0  0  0  0  0  0  0
   -2.1686    1.5320    0.0000 O   0  0  0  0  0  0  0  0  0  0  0  0
   -0.9103    1.5652    0.0000 C   0  0  0  0  0  0  0  0  0  0  0  0
   -0.0933    1.3057    0.0000 C   0  0  0  0  0  0  0  0  0  0  0  0
    0.0360    0.4412    0.0000 C   0  0  1  0  0  0  0  0  0  0  0  0
    0.7362   -0.0133    0.0000 C   0  0  1  0  0  0  0  0  0  0  0  0
    0.2610    0.7245    0.0000 O   0  0  0  0  0  0  0  0  0  0  0  0
    1.7017   -0.0697    0.0000 C   0  0  0  0  0  0  0  0  0  0  0  0
    2.2394    0.3262    0.0000 C   0  0  0  0  0  0  0  0  0  0  0  0
    2.0547   -0.4778    0.0000 C   0  0  2  0  0  0  0  0  0  0  0  0
    2.5416   -1.1389    0.0000 O   0  0  0  0  0  0  0  0  0  0  0  0
    1.1328   -0.4085    0.0000 C   0  0  2  0  0  0  0  0  0  0  0  0
    0.8701   -1.1865    0.0000 C   0  0  0  0  0  0  0  0  0  0  0  0
    0.8554    0.3141    0.0000 C   0  0  0  0  0  0  0  0  0  0  0  0
    1.5007    0.8217    0.0000 O   0  0  0  0  0  0  0  0  0  0  0  0
    0.0382   -1.3740    0.0000 H   0  0  0  0  0  0  0  0  0  0  0  0
    0.5489   -1.3942    0.0000 H   0  0  0  0  0  0  0  0  0  0  0  0
    0.2083    0.9962    0.0000 H   0  0  0  0  0  0  0  0  0  0  0  0
    2.6237   -0.3598    0.0000 H   0  0  0  0  0  0  0  0  0  0  0  0
  1  2  1  0  0  0  0
  2  3  2  0  0  0  0
  4  2  1  6  0  0  0
  4  5  1  0  0  0  0
  4  6  1  0  0  0  0
  4 26  1  1  0  0  0
  5 16  1  0  0  0  0
  5 22  1  0  0  0  0
  5 27  1  6  0  0  0
  6  7  1  0  0  0  0
  6 11  1  1  0  0  0
  6 15  1  0  0  0  0
  7  8  1  0  0  0  0
  8  9  2  0  0  0  0
  8 10  1  0  0  0  0
 10 11  1  0  0  0  0
 10 12  1  1  0  0  0
 10 13  1  0  0  0  0
 13 14  1  0  0  0  0
 14 15  1  0  0  0  0
 15 16  1  0  0  0  0
 15 28  1  6  0  0  0
 16 17  1  1  0  0  0
 16 18  1  0  0  0  0
 17 24  1  0  0  0  0
 18 19  2  0  0  0  0
 19 20  1  0  0  0  0
 20 21  1  6  0  0  0
 20 22  1  0  0  0  0
 20 29  1  1  0  0  0
 22 23  1  1  0  0  0
 22 24  1  0  0  0  0
 24 25  2  0  0  0  0
M  END
> <DRUGBANK_ID>
DB07814

> <DRUG_GROUPS>
experimental

> <GENERIC_NAME>
GIBBERELLIN A3

> <CHEMICAL_FORMULA>
C19H22O6

> <MOLECULAR_WEIGHT>
346.3744

> <EXACT_MASS>
346.141638436

> <IUPAC_NAME>
(1R,2R,5S,8S,9S,10R,11S,12S)-5,12-dihydroxy-11-methyl-6-methylidene-16-oxo-15-oxapentacyclo[9.3.2.1^{5,8}.0^{1,10}.0^{2,8}]heptadec-13-ene-9-carboxylic acid

> <IUPAC_TRADITIONAL_NAME>
gibberellin

> <INCHI_IDENTIFIER>
InChI=1S/C19H22O6/c1-9-7-17-8-18(9,24)5-3-10(17)19-6-4-11(20)16(2,15(23)25-19)13(19)12(17)14(21)22/h4,6,10-13,20,24H,1,3,5,7-8H2,2H3,(H,21,22)/t10-,11+,12-,13-,16-,17+,18+,19-/m1/s1

> <INCHI_KEY>
InChIKey=IXORZMNAPKEEDV-OBDJNFEBSA-N

> <SMILES>
[H][C@@]12CC[C@]3(O)C[C@]1(CC3=C)[C@@]([H])(C(O)=O)[C@]1([H])[C@]3(C)C(=O)O[C@]21C=C[C@]3([H])O

> <JCHEM_ACCEPTOR_COUNT>
5

> <JCHEM_DONOR_COUNT>
3

> <JCHEM_ACIDIC_PKA>
4.16

> <JCHEM_BASIC_PKA>
-0.9

> <JCHEM_PHYSIOLOGICAL_CHARGE>
-1

> <ALOGPS_LOGP>
0.66

> <JCHEM_LOGP>
0.35

> <ALOGPS_LOGS>
-2.2

> <JCHEM_POLARIZABILITY>
34.81

> <JCHEM_POLAR_SURFACE_AREA>
104.06

> <JCHEM_REFRACTIVITY>
86.42

> <JCHEM_ROTATABLE_BOND_COUNT>
1

> <ALOGPS_SOLUBILITY>
1.95e+00 g/l __ 

$$$$
