3NA
  Mrv0541 02241213102D          

 26 29  0  0  0  0            999 V2000
   -0.4585   -1.7382    0.0000 C   0  0  0  0  0  0  0  0  0  0  0  0
    0.7677   -0.6342    0.0000 C   0  0  0  0  0  0  0  0  0  0  0  0
   -0.6300   -0.9312    0.0000 C   0  0  0  0  0  0  0  0  0  0  0  0
    0.3261   -1.9932    0.0000 C   0  0  0  0  0  0  0  0  0  0  0  0
    0.9392   -1.4411    0.0000 C   0  0  0  0  0  0  0  0  0  0  0  0
   -0.0169   -0.3792    0.0000 C   0  0  0  0  0  0  0  0  0  0  0  0
   -0.3525    0.3745    0.0000 C   0  0  0  0  0  0  0  0  0  0  0  0
    0.8850    1.0889    0.0000 C   0  0  0  0  0  0  0  0  0  0  0  0
    1.3699    0.4215    0.0000 S   0  0  0  0  0  0  0  0  0  0  0  0
   -1.3445   -0.5187    0.0000 N   0  0  0  0  0  0  0  0  0  0  0  0
   -1.1730    0.2882    0.0000 C   0  0  0  0  0  0  0  0  0  0  0  0
    0.0600    1.0889    0.0000 C   0  0  0  0  0  0  0  0  0  0  0  0
    2.8690   -0.5611    0.0000 F   0  0  0  0  0  0  0  0  0  0  0  0
   -2.0982   -0.8543    0.0000 C   0  0  0  0  0  0  0  0  0  0  0  0
    2.8690    2.7389    0.0000 F   0  0  0  0  0  0  0  0  0  0  0  0
    4.2980    1.9139    0.0000 F   0  0  0  0  0  0  0  0  0  0  0  0
    2.1546    1.5014    0.0000 C   0  0  0  0  0  0  0  0  0  0  0  0
    3.5835    0.6764    0.0000 C   0  0  0  0  0  0  0  0  0  0  0  0
    2.8690    1.9139    0.0000 C   0  0  0  0  0  0  0  0  0  0  0  0
    2.1546    0.6764    0.0000 C   0  0  0  0  0  0  0  0  0  0  0  0
    2.8690    0.2639    0.0000 C   0  0  0  0  0  0  0  0  0  0  0  0
    3.5835    1.5014    0.0000 C   0  0  0  0  0  0  0  0  0  0  0  0
   -2.7656   -0.3694    0.0000 C   0  0  0  0  0  0  0  0  0  0  0  0
   -3.5193   -0.7049    0.0000 O   0  0  0  0  0  0  0  0  0  0  0  0
   -2.6794    0.4511    0.0000 O   0  0  0  0  0  0  0  0  0  0  0  0
    1.3699    1.7564    0.0000 N   0  0  0  0  0  0  0  0  0  0  0  0
  1  3  1  0  0  0  0
  1  4  2  0  0  0  0
  2  5  2  0  0  0  0
  2  6  1  0  0  0  0
  3  6  2  0  0  0  0
  3 10  1  0  0  0  0
  4  5  1  0  0  0  0
  6  7  1  0  0  0  0
  7 11  2  0  0  0  0
  7 12  1  0  0  0  0
  8  9  1  0  0  0  0
  8 12  1  0  0  0  0
  8 26  2  0  0  0  0
  9 20  1  0  0  0  0
 10 11  1  0  0  0  0
 10 14  1  0  0  0  0
 13 21  1  0  0  0  0
 14 23  1  0  0  0  0
 15 19  1  0  0  0  0
 16 22  1  0  0  0  0
 17 19  1  0  0  0  0
 17 20  2  0  0  0  0
 17 26  1  0  0  0  0
 18 21  2  0  0  0  0
 18 22  1  0  0  0  0
 19 22  2  0  0  0  0
 20 21  1  0  0  0  0
 23 24  2  0  0  0  0
 23 25  1  0  0  0  0
M  END
> <DRUGBANK_ID>
DB07063

> <DRUG_GROUPS>
experimental

> <GENERIC_NAME>
{3-[(4,5,7-TRIFLUORO-1,3-BENZOTHIAZOL-2-YL)METHYL]-1H-INDOL-1-YL}ACETIC ACID

> <CHEMICAL_FORMULA>
C18H11F3N2O2S

> <MOLECULAR_WEIGHT>
376.352

> <EXACT_MASS>
376.049332911

> <IUPAC_NAME>
2-{3-[(4,5,7-trifluoro-1,3-benzothiazol-2-yl)methyl]-1H-indol-1-yl}acetic acid

> <IUPAC_TRADITIONAL_NAME>
{3-[(4,5,7-trifluoro-1,3-benzothiazol-2-yl)methyl]indol-1-yl}acetic acid

> <INCHI_IDENTIFIER>
InChI=1S/C18H11F3N2O2S/c19-11-6-12(20)18-17(16(11)21)22-14(26-18)5-9-7-23(8-15(24)25)13-4-2-1-3-10(9)13/h1-4,6-7H,5,8H2,(H,24,25)

> <INCHI_KEY>
InChIKey=KYHVTMFADJNSGS-UHFFFAOYSA-N

> <SMILES>
OC(=O)CN1C=C(CC2=NC3=C(S2)C(F)=CC(F)=C3F)C2=C1C=CC=C2

> <JCHEM_ACCEPTOR_COUNT>
3

> <JCHEM_DONOR_COUNT>
1

> <JCHEM_ACIDIC_PKA>
4.22

> <JCHEM_BASIC_PKA>
1.45

> <JCHEM_PHYSIOLOGICAL_CHARGE>
-1

> <ALOGPS_LOGP>
3.94

> <JCHEM_LOGP>
4.3

> <ALOGPS_LOGS>
-4.5

> <JCHEM_POLARIZABILITY>
33.81

> <JCHEM_POLAR_SURFACE_AREA>
55.12

> <JCHEM_REFRACTIVITY>
89.01

> <JCHEM_ROTATABLE_BOND_COUNT>
4

> <ALOGPS_SOLUBILITY>
1.10e-02 g/l __ 

$$$$
