DC8
  Mrv0541 02241213332D          

 26 29  0  0  0  0            999 V2000
   -1.2219    0.1607    0.0000 C   0  0  0  0  0  0  0  0  0  0  0  0
    0.0373   -0.5148    0.0000 C   0  0  1  0  0  0  0  0  0  0  0  0
    0.4273    0.2122    0.0000 C   0  0  1  0  0  0  0  0  0  0  0  0
    1.2285    0.4089    0.0000 C   0  0  0  0  0  0  0  0  0  0  0  0
   -0.0073    0.9135    0.0000 C   0  0  2  0  0  0  0  0  0  0  0  0
   -0.8319    0.8877    0.0000 C   0  0  0  0  0  0  0  0  0  0  0  0
    0.0819   -1.9430    0.0000 C   0  0  0  0  0  0  0  0  0  0  0  0
    0.5165   -2.6443    0.0000 C   0  0  0  0  0  0  0  0  0  0  0  0
    1.3411   -2.6185    0.0000 C   0  0  0  0  0  0  0  0  0  0  0  0
    1.7311   -1.8915    0.0000 C   0  0  0  0  0  0  0  0  0  0  0  0
   -2.0911    1.5632    0.0000 C   0  0  0  0  0  0  0  0  0  0  0  0
   -2.4811    0.8362    0.0000 C   0  0  0  0  0  0  0  0  0  0  0  0
   -2.0465    0.1349    0.0000 C   0  0  0  0  0  0  0  0  0  0  0  0
   -0.7873   -0.5405    0.0000 O   0  0  0  0  0  0  0  0  0  0  0  0
    1.2891    1.2317    0.0000 C   0  0  0  0  0  0  0  0  0  0  0  0
    1.6866    1.9545    0.0000 F   0  0  0  0  0  0  0  0  0  0  0  0
    2.1133    1.2660    0.0000 F   0  0  0  0  0  0  0  0  0  0  0  0
    0.5253    1.5435    0.0000 C   0  0  0  0  0  0  0  0  0  0  0  0
   -1.2665    1.5890    0.0000 C   0  0  0  0  0  0  0  0  0  0  0  0
    0.4719   -1.2160    0.0000 C   0  0  0  0  0  0  0  0  0  0  0  0
    1.7757   -3.3197    0.0000 O   0  0  0  0  0  0  0  0  0  0  0  0
    1.2965   -1.1902    0.0000 C   0  0  0  0  0  0  0  0  0  0  0  0
   -2.5258    2.2644    0.0000 O   0  0  0  0  0  0  0  0  0  0  0  0
   -0.2387   -1.0293    0.0000 H   0  0  0  0  0  0  0  0  0  0  0  0
    0.7851   -0.2492    0.0000 H   0  0  0  0  0  0  0  0  0  0  0  0
   -0.2614    1.4392    0.0000 H   0  0  0  0  0  0  0  0  0  0  0  0
  1 13  1  0  0  0  0
  1 14  1  0  0  0  0
  1  6  2  0  0  0  0
  2 14  1  0  0  0  0
  2 20  1  6  0  0  0
  2  3  1  0  0  0  0
  2 24  1  1  0  0  0
  3  5  1  0  0  0  0
  3  4  1  0  0  0  0
  3 25  1  1  0  0  0
  4 15  1  0  0  0  0
  5  6  1  0  0  0  0
  5 18  1  0  0  0  0
  5 26  1  1  0  0  0
  6 19  1  0  0  0  0
  7 20  2  0  0  0  0
  7  8  1  0  0  0  0
  8  9  2  0  0  0  0
  9 10  1  0  0  0  0
  9 21  1  0  0  0  0
 10 22  2  0  0  0  0
 11 12  1  0  0  0  0
 11 23  1  0  0  0  0
 11 19  2  0  0  0  0
 12 13  2  0  0  0  0
 15 18  1  0  0  0  0
 15 17  1  0  0  0  0
 15 16  1  0  0  0  0
 20 22  1  0  0  0  0
M  END
> <DRUGBANK_ID>
DB07638

> <DRUG_GROUPS>
experimental

> <GENERIC_NAME>
(3AS,4R,9BR)-2,2-DIFLUORO-4-(4-HYDROXYPHENYL)-1,2,3,3A,4,9B-HEXAHYDROCYCLOPENTA[C]CHROMEN-8-OL

> <CHEMICAL_FORMULA>
C18H16F2O3

> <MOLECULAR_WEIGHT>
318.3146

> <EXACT_MASS>
318.106750788

> <IUPAC_NAME>
(2R,6S,7R)-4,4-difluoro-7-(4-hydroxyphenyl)-8-oxatricyclo[7.4.0.0^{2,6}]trideca-1(13),9,11-trien-12-ol

> <IUPAC_TRADITIONAL_NAME>
(2R,6S,7R)-4,4-difluoro-7-(4-hydroxyphenyl)-8-oxatricyclo[7.4.0.0^{2,6}]trideca-1(13),9,11-trien-12-ol

> <INCHI_IDENTIFIER>
InChI=1S/C18H16F2O3/c19-18(20)8-14-13-7-12(22)5-6-16(13)23-17(15(14)9-18)10-1-3-11(21)4-2-10/h1-7,14-15,17,21-22H,8-9H2/t14-,15-,17-/m0/s1

> <INCHI_KEY>
InChIKey=QJSMFUTULGSHNQ-ZOBUZTSGSA-N

> <SMILES>
[H][C@@]12CC(F)(F)C[C@]1([H])[C@@]([H])(OC1=C2C=C(O)C=C1)C1=CC=C(O)C=C1

> <JCHEM_ACCEPTOR_COUNT>
3

> <JCHEM_DONOR_COUNT>
2

> <JCHEM_ACIDIC_PKA>
9.35

> <JCHEM_BASIC_PKA>
-4.9

> <JCHEM_PHYSIOLOGICAL_CHARGE>
0

> <ALOGPS_LOGP>
3.78

> <JCHEM_LOGP>
3.6

> <ALOGPS_LOGS>
-3.8

> <JCHEM_POLARIZABILITY>
30.4

> <JCHEM_POLAR_SURFACE_AREA>
49.69

> <JCHEM_REFRACTIVITY>
81.09

> <JCHEM_ROTATABLE_BOND_COUNT>
1

> <ALOGPS_SOLUBILITY>
5.32e-02 g/l __ 

$$$$
