B67
  Mrv0541 02241213252D          

 32 33  0  0  0  0            999 V2000
   -2.4887    2.8878    0.0000 F   0  0  0  0  0  0  0  0  0  0  0  0
   -2.4887    2.0628    0.0000 C   0  0  0  0  0  0  0  0  0  0  0  0
   -3.3137    2.0628    0.0000 F   0  0  0  0  0  0  0  0  0  0  0  0
   -1.6637    2.0628    0.0000 F   0  0  0  0  0  0  0  0  0  0  0  0
   -2.4887    1.2378    0.0000 C   0  0  0  0  0  0  0  0  0  0  0  0
   -1.7742    0.8253    0.0000 C   0  0  0  0  0  0  0  0  0  0  0  0
   -3.2032    0.8253    0.0000 C   0  0  0  0  0  0  0  0  0  0  0  0
   -3.9176    1.2378    0.0000 N   0  3  0  0  0  0  0  0  0  0  0  0
   -4.6321    0.8253    0.0000 O   0  0  0  0  0  0  0  0  0  0  0  0
   -3.9176    2.0628    0.0000 O   0  5  0  0  0  0  0  0  0  0  0  0
   -3.2032    0.0003    0.0000 C   0  0  0  0  0  0  0  0  0  0  0  0
   -2.4887   -0.4122    0.0000 C   0  0  0  0  0  0  0  0  0  0  0  0
   -1.7742    0.0003    0.0000 C   0  0  0  0  0  0  0  0  0  0  0  0
   -1.0598   -0.4122    0.0000 N   0  0  0  0  0  0  0  0  0  0  0  0
   -0.3453    0.0003    0.0000 C   0  0  0  0  0  0  0  0  0  0  0  0
   -0.3453    0.8253    0.0000 O   0  0  0  0  0  0  0  0  0  0  0  0
    0.3692   -0.4122    0.0000 C   0  0  2  0  0  0  0  0  0  0  0  0
   -0.0433   -1.1266    0.0000 O   0  0  0  0  0  0  0  0  0  0  0  0
    0.7817    0.3023    0.0000 C   0  0  0  0  0  0  0  0  0  0  0  0
    1.0837   -0.8247    0.0000 C   0  0  0  0  0  0  0  0  0  0  0  0
    1.7981   -0.4122    0.0000 O   0  0  0  0  0  0  0  0  0  0  0  0
    2.5126   -0.8247    0.0000 C   0  0  0  0  0  0  0  0  0  0  0  0
    3.2271   -0.4122    0.0000 C   0  0  0  0  0  0  0  0  0  0  0  0
    3.2271    0.4128    0.0000 F   0  0  0  0  0  0  0  0  0  0  0  0
    3.9415   -0.8247    0.0000 C   0  0  0  0  0  0  0  0  0  0  0  0
    4.6560   -0.4122    0.0000 F   0  0  0  0  0  0  0  0  0  0  0  0
    3.9415   -1.6497    0.0000 C   0  0  0  0  0  0  0  0  0  0  0  0
    4.6560   -2.0622    0.0000 F   0  0  0  0  0  0  0  0  0  0  0  0
    3.2271   -2.0622    0.0000 C   0  0  0  0  0  0  0  0  0  0  0  0
    3.2271   -2.8872    0.0000 F   0  0  0  0  0  0  0  0  0  0  0  0
    2.5126   -1.6497    0.0000 C   0  0  0  0  0  0  0  0  0  0  0  0
    1.7981   -2.0622    0.0000 F   0  0  0  0  0  0  0  0  0  0  0  0
  1  2  1  0  0  0  0
  2  3  1  0  0  0  0
  2  4  1  0  0  0  0
  2  5  1  0  0  0  0
  5  6  2  0  0  0  0
  5  7  1  0  0  0  0
  6 13  1  0  0  0  0
  7  8  1  0  0  0  0
  7 11  2  0  0  0  0
  8  9  2  0  0  0  0
 10  8  1  0  0  0  0
 11 12  1  0  0  0  0
 12 13  2  0  0  0  0
 13 14  1  0  0  0  0
 14 15  1  0  0  0  0
 15 16  2  0  0  0  0
 15 17  1  0  0  0  0
 17 18  1  1  0  0  0
 17 19  1  1  0  0  0
 17 20  1  0  0  0  0
 20 21  1  0  0  0  0
 21 22  1  0  0  0  0
 22 23  2  0  0  0  0
 22 31  1  0  0  0  0
 23 24  1  0  0  0  0
 23 25  1  0  0  0  0
 25 26  1  0  0  0  0
 25 27  2  0  0  0  0
 27 28  1  0  0  0  0
 27 29  1  0  0  0  0
 29 30  1  0  0  0  0
 29 31  2  0  0  0  0
 31 32  1  0  0  0  0
M  END
> <DRUGBANK_ID>
DB07422

> <DRUG_GROUPS>
experimental

> <GENERIC_NAME>
(2S)-2-hydroxy-2-methyl-N-[4-nitro-3-(trifluoromethyl)phenyl]-3-(pentafluorophenoxy)propanamide

> <CHEMICAL_FORMULA>
C17H10F8N2O5

> <MOLECULAR_WEIGHT>
474.2589

> <EXACT_MASS>
474.04619708

> <IUPAC_NAME>
(2S)-2-hydroxy-2-methyl-N-[4-nitro-3-(trifluoromethyl)phenyl]-3-pentafluorophenoxypropanamide

> <IUPAC_TRADITIONAL_NAME>
(2S)-2-hydroxy-2-methyl-N-[4-nitro-3-(trifluoromethyl)phenyl]-3-pentafluorophenoxypropanamide

> <INCHI_IDENTIFIER>
InChI=1S/C17H10F8N2O5/c1-16(29,5-32-14-12(21)10(19)9(18)11(20)13(14)22)15(28)26-6-2-3-8(27(30)31)7(4-6)17(23,24)25/h2-4,29H,5H2,1H3,(H,26,28)/t16-/m0/s1

> <INCHI_KEY>
InChIKey=MMNRWNREMUMYQG-INIZCTEOSA-N

> <SMILES>
C[C@](O)(COC1=C(F)C(F)=C(F)C(F)=C1F)C(=O)NC1=CC=C(C(=C1)C(F)(F)F)[N+]([O-])=O

> <JCHEM_ACCEPTOR_COUNT>
5

> <JCHEM_DONOR_COUNT>
2

> <JCHEM_ACIDIC_PKA>
11.77

> <JCHEM_BASIC_PKA>
-4

> <JCHEM_PHYSIOLOGICAL_CHARGE>
0

> <ALOGPS_LOGP>
3.47

> <JCHEM_LOGP>
4.21

> <ALOGPS_LOGS>
-4.8

> <JCHEM_POLARIZABILITY>
34.12

> <JCHEM_POLAR_SURFACE_AREA>
104.38

> <JCHEM_REFRACTIVITY>
92.01

> <JCHEM_ROTATABLE_BOND_COUNT>
7

> <ALOGPS_SOLUBILITY>
8.48e-03 g/l __ 

$$$$
