HF1
  Mrv0541 02241213432D          

 17 17  0  0  0  0            999 V2000
    2.9508   -0.0571    0.0000 P   0  0  0  0  0  0  0  0  0  0  0  0
    3.6652    0.3554    0.0000 O   0  0  0  0  0  0  0  0  0  0  0  0
    2.5383    0.6574    0.0000 O   0  0  0  0  0  0  0  0  0  0  0  0
    3.3633   -0.7716    0.0000 O   0  0  0  0  0  0  0  0  0  0  0  0
    1.5218   -0.0571    0.0000 C   0  0  0  0  0  0  0  0  0  0  0  0
    0.0929   -0.0571    0.0000 C   0  0  0  0  0  0  0  0  0  0  0  0
   -1.3361    0.7679    0.0000 C   0  0  0  0  0  0  0  0  0  0  0  0
   -1.3361   -0.0571    0.0000 C   0  0  0  0  0  0  0  0  0  0  0  0
   -2.0505   -0.4696    0.0000 C   0  0  0  0  0  0  0  0  0  0  0  0
   -2.0505   -1.2946    0.0000 O   0  0  0  0  0  0  0  0  0  0  0  0
   -2.7650   -0.0571    0.0000 C   0  0  0  0  0  0  0  0  0  0  0  0
   -2.7650    0.7679    0.0000 C   0  0  0  0  0  0  0  0  0  0  0  0
   -2.0505    1.1804    0.0000 C   0  0  0  0  0  0  0  0  0  0  0  0
   -2.0505    2.0054    0.0000 F   0  0  0  0  0  0  0  0  0  0  0  0
   -0.6216   -0.4696    0.0000 S   0  0  0  0  0  0  0  0  0  0  0  0
    0.8074   -0.4696    0.0000 C   0  0  0  0  0  0  0  0  0  0  0  0
    2.2363   -0.4696    0.0000 C   0  0  0  0  0  0  0  0  0  0  0  0
  1  2  2  0  0  0  0
  1  3  1  0  0  0  0
  1  4  1  0  0  0  0
  1 17  1  0  0  0  0
  5 16  1  0  0  0  0
  5 17  2  0  0  0  0
  6 15  1  0  0  0  0
  6 16  1  0  0  0  0
  7  8  2  0  0  0  0
  7 13  1  0  0  0  0
  8  9  1  0  0  0  0
  8 15  1  0  0  0  0
  9 10  1  0  0  0  0
  9 11  2  0  0  0  0
 11 12  1  0  0  0  0
 12 13  2  0  0  0  0
 13 14  1  0  0  0  0
M  END
> <DRUGBANK_ID>
DB07894

> <DRUG_GROUPS>
experimental

> <GENERIC_NAME>
4-(2-HYDROXY-4-FLUOROPHENYLTHIO)-BUTYLPHOSPHONIC ACID

> <CHEMICAL_FORMULA>
C10H12FO4PS

> <MOLECULAR_WEIGHT>
278.237

> <EXACT_MASS>
278.017794279

> <IUPAC_NAME>
[(1E)-4-[(5-fluoro-2-hydroxyphenyl)sulfanyl]but-1-en-1-yl]phosphonic acid

> <IUPAC_TRADITIONAL_NAME>
(1E)-4-[(5-fluoro-2-hydroxyphenyl)sulfanyl]but-1-en-1-ylphosphonic acid

> <INCHI_IDENTIFIER>
InChI=1S/C10H12FO4PS/c11-8-3-4-9(12)10(7-8)17-6-2-1-5-16(13,14)15/h1,3-5,7,12H,2,6H2,(H2,13,14,15)/b5-1+

> <INCHI_KEY>
InChIKey=UXOYJQMPYTYCMG-ORCRQEGFSA-N

> <SMILES>
OC1=CC=C(F)C=C1SCC\C=C\P(O)(O)=O

> <JCHEM_ACCEPTOR_COUNT>
4

> <JCHEM_DONOR_COUNT>
3

> <JCHEM_ACIDIC_PKA>
3.62

> <JCHEM_BASIC_PKA>
-6.1

> <JCHEM_PHYSIOLOGICAL_CHARGE>
-1

> <ALOGPS_LOGP>
1.32

> <JCHEM_LOGP>
1.63

> <ALOGPS_LOGS>
-2.8

> <JCHEM_POLARIZABILITY>
25.29

> <JCHEM_POLAR_SURFACE_AREA>
77.76

> <JCHEM_REFRACTIVITY>
66.34

> <JCHEM_ROTATABLE_BOND_COUNT>
5

> <ALOGPS_SOLUBILITY>
4.06e-01 g/l __ 

$$$$
