BI2
  Mrv0541 02241213262D          

 34 39  0  0  0  0            999 V2000
   -0.4986   -2.1996    0.0000 C   0  0  0  0  0  0  0  0  0  0  0  0
   -1.3236   -2.1996    0.0000 N   0  0  0  0  0  0  0  0  0  0  0  0
   -1.8085   -2.8670    0.0000 C   0  0  0  0  0  0  0  0  0  0  0  0
   -2.5932   -2.6121    0.0000 C   0  0  0  0  0  0  0  0  0  0  0  0
   -2.5932   -1.7871    0.0000 C   0  0  0  0  0  0  0  0  0  0  0  0
   -1.8085   -1.5321    0.0000 C   0  0  2  0  0  0  0  0  0  0  0  0
   -1.5536   -0.7475    0.0000 C   0  0  0  0  0  0  0  0  0  0  0  0
   -0.7466   -0.5760    0.0000 C   0  0  0  0  0  0  0  0  0  0  0  0
   -0.4917    0.2087    0.0000 N   0  0  0  0  0  0  0  0  0  0  0  0
    0.2929    0.4636    0.0000 C   0  0  0  0  0  0  0  0  0  0  0  0
   -0.9766    0.8761    0.0000 C   0  0  0  0  0  0  0  0  0  0  0  0
   -1.7971    0.9623    0.0000 C   0  0  0  0  0  0  0  0  0  0  0  0
   -2.1326    1.7160    0.0000 C   0  0  0  0  0  0  0  0  0  0  0  0
   -1.6477    2.3834    0.0000 C   0  0  0  0  0  0  0  0  0  0  0  0
   -0.8272    2.2972    0.0000 C   0  0  0  0  0  0  0  0  0  0  0  0
   -0.4917    1.5435    0.0000 C   0  0  0  0  0  0  0  0  0  0  0  0
    0.2929    1.2886    0.0000 C   0  0  0  0  0  0  0  0  0  0  0  0
    0.9604    1.7735    0.0000 C   0  0  0  0  0  0  0  0  0  0  0  0
    0.9604    2.5985    0.0000 C   0  0  0  0  0  0  0  0  0  0  0  0
    0.2929    3.0834    0.0000 O   0  0  0  0  0  0  0  0  0  0  0  0
    1.7450    2.8535    0.0000 N   0  0  0  0  0  0  0  0  0  0  0  0
    2.2299    2.1860    0.0000 C   0  0  0  0  0  0  0  0  0  0  0  0
    3.0549    2.1860    0.0000 O   0  0  0  0  0  0  0  0  0  0  0  0
    1.7450    1.5186    0.0000 C   0  0  0  0  0  0  0  0  0  0  0  0
    1.9999    0.7340    0.0000 C   0  0  0  0  0  0  0  0  0  0  0  0
    2.7846    0.4790    0.0000 C   0  0  0  0  0  0  0  0  0  0  0  0
    3.4990    0.8915    0.0000 C   0  0  0  0  0  0  0  0  0  0  0  0
    4.2135    0.4790    0.0000 C   0  0  0  0  0  0  0  0  0  0  0  0
    4.2135   -0.3460    0.0000 C   0  0  0  0  0  0  0  0  0  0  0  0
    3.4990   -0.7585    0.0000 C   0  0  0  0  0  0  0  0  0  0  0  0
    2.7846   -0.3460    0.0000 C   0  0  0  0  0  0  0  0  0  0  0  0
    1.9999   -0.6009    0.0000 N   0  0  0  0  0  0  0  0  0  0  0  0
    1.5150    0.0665    0.0000 C   0  0  0  0  0  0  0  0  0  0  0  0
   -1.2318   -1.4408    0.0000 H   0  0  0  0  0  0  0  0  0  0  0  0
  1  2  1  0  0  0  0
  2  3  1  0  0  0  0
  2  6  1  0  0  0  0
  3  4  1  0  0  0  0
  4  5  1  0  0  0  0
  5  6  1  0  0  0  0
  6  7  1  6  0  0  0
  6 34  1  1  0  0  0
  7  8  1  0  0  0  0
  8  9  1  0  0  0  0
  9 10  1  0  0  0  0
  9 11  1  0  0  0  0
 10 17  2  0  0  0  0
 11 12  1  0  0  0  0
 11 16  2  0  0  0  0
 12 13  2  0  0  0  0
 13 14  1  0  0  0  0
 14 15  2  0  0  0  0
 15 16  1  0  0  0  0
 16 17  1  0  0  0  0
 17 18  1  0  0  0  0
 18 19  1  0  0  0  0
 18 24  2  0  0  0  0
 19 20  2  0  0  0  0
 19 21  1  0  0  0  0
 21 22  1  0  0  0  0
 22 23  2  0  0  0  0
 22 24  1  0  0  0  0
 24 25  1  0  0  0  0
 25 26  1  0  0  0  0
 25 33  2  0  0  0  0
 26 27  1  0  0  0  0
 26 31  2  0  0  0  0
 27 28  2  0  0  0  0
 28 29  1  0  0  0  0
 29 30  2  0  0  0  0
 30 31  1  0  0  0  0
 31 32  1  0  0  0  0
 32 33  1  0  0  0  0
M  END
> <DRUGBANK_ID>
DB07456

> <DRUG_GROUPS>
experimental

> <GENERIC_NAME>
3-(1H-INDOL-3-YL)-4-(1-{2-[(2S)-1-METHYLPYRROLIDINYL]ETHYL}-1H-INDOL-3-YL)-1H-PYRROLE-2,5-DIONE

> <CHEMICAL_FORMULA>
C27H26N4O2

> <MOLECULAR_WEIGHT>
438.5209

> <EXACT_MASS>
438.205576096

> <IUPAC_NAME>
3-(1H-indol-3-yl)-4-(1-{2-[(2R)-1-methylpyrrolidin-2-yl]ethyl}-1H-indol-3-yl)-2,5-dihydro-1H-pyrrole-2,5-dione

> <IUPAC_TRADITIONAL_NAME>
3-(1H-indol-3-yl)-4-(1-{2-[(2R)-1-methylpyrrolidin-2-yl]ethyl}indol-3-yl)-1H-pyrrole-2,5-dione

> <INCHI_IDENTIFIER>
InChI=1S/C27H26N4O2/c1-30-13-6-7-17(30)12-14-31-16-21(19-9-3-5-11-23(19)31)25-24(26(32)29-27(25)33)20-15-28-22-10-4-2-8-18(20)22/h2-5,8-11,15-17,28H,6-7,12-14H2,1H3,(H,29,32,33)/t17-/m1/s1

> <INCHI_KEY>
InChIKey=LBFDERUQORUFIN-QGZVFWFLSA-N

> <SMILES>
[H][C@]1(CCN2C=C(C3=C2C=CC=C3)C2=C(C(=O)NC2=O)C2=CNC3=C2C=CC=C3)CCCN1C

> <JCHEM_ACCEPTOR_COUNT>
3

> <JCHEM_DONOR_COUNT>
2

> <JCHEM_ACIDIC_PKA>
9.55

> <JCHEM_BASIC_PKA>
10.23

> <JCHEM_PHYSIOLOGICAL_CHARGE>
1

> <ALOGPS_LOGP>
4.5

> <JCHEM_LOGP>
2.88

> <ALOGPS_LOGS>
-5

> <JCHEM_POLARIZABILITY>
49.07

> <JCHEM_POLAR_SURFACE_AREA>
70.13

> <JCHEM_REFRACTIVITY>
129.42

> <JCHEM_ROTATABLE_BOND_COUNT>
5

> <ALOGPS_SOLUBILITY>
4.28e-03 g/l __ 

$$$$
