PUY
  Mrv0541 02241214052D          

 39 42  0  0  0  0            999 V2000
   -1.8689    1.2910    0.0000 N   0  0  0  0  0  0  0  0  0  0  0  0
   -1.1152    1.6265    0.0000 C   0  0  1  0  0  0  0  0  0  0  0  0
   -1.0290    2.4470    0.0000 C   0  0  0  0  0  0  0  0  0  0  0  0
   -1.6964    2.9319    0.0000 C   0  0  0  0  0  0  0  0  0  0  0  0
   -2.4501    2.5964    0.0000 C   0  0  0  0  0  0  0  0  0  0  0  0
   -1.6102    3.7524    0.0000 C   0  0  0  0  0  0  0  0  0  0  0  0
   -3.1175    3.0813    0.0000 C   0  0  0  0  0  0  0  0  0  0  0  0
   -2.2776    4.2373    0.0000 C   0  0  0  0  0  0  0  0  0  0  0  0
   -3.0313    3.9018    0.0000 C   0  0  0  0  0  0  0  0  0  0  0  0
    0.3059    1.4772    0.0000 O   0  0  0  0  0  0  0  0  0  0  0  0
   -3.6987    4.3867    0.0000 O   0  0  0  0  0  0  0  0  0  0  0  0
   -3.6125    5.2072    0.0000 C   0  0  0  0  0  0  0  0  0  0  0  0
   -0.4478    1.1416    0.0000 C   0  0  0  0  0  0  0  0  0  0  0  0
    1.9800    1.0473    0.0000 O   0  0  0  0  0  0  0  0  0  0  0  0
    1.1730    0.8758    0.0000 C   0  0  0  0  0  0  0  0  0  0  0  0
    0.9181    0.0911    0.0000 C   0  0  1  0  0  0  0  0  0  0  0  0
    1.4030   -0.5763    0.0000 O   0  0  0  0  0  0  0  0  0  0  0  0
    0.9181   -1.2437    0.0000 C   0  0  1  0  0  0  0  0  0  0  0  0
    1.1730   -2.0284    0.0000 N   0  0  0  0  0  0  0  0  0  0  0  0
    1.9576   -2.2833    0.0000 C   0  0  0  0  0  0  0  0  0  0  0  0
    2.6721   -1.8708    0.0000 N   0  0  0  0  0  0  0  0  0  0  0  0
    3.3866   -2.2833    0.0000 C   0  0  0  0  0  0  0  0  0  0  0  0
    3.3866   -3.1083    0.0000 N   0  0  0  0  0  0  0  0  0  0  0  0
    2.6721   -3.5208    0.0000 C   0  0  0  0  0  0  0  0  0  0  0  0
    2.6721   -4.3458    0.0000 N   0  0  0  0  0  0  0  0  0  0  0  0
    3.3866   -4.7583    0.0000 C   0  0  0  0  0  0  0  0  0  0  0  0
    1.9576   -4.7583    0.0000 C   0  0  0  0  0  0  0  0  0  0  0  0
    1.9576   -3.1083    0.0000 C   0  0  0  0  0  0  0  0  0  0  0  0
    1.1730   -3.3632    0.0000 N   0  0  0  0  0  0  0  0  0  0  0  0
    0.6881   -2.6958    0.0000 C   0  0  0  0  0  0  0  0  0  0  0  0
    0.1334   -0.9888    0.0000 C   0  0  2  0  0  0  0  0  0  0  0  0
   -0.5340   -1.4737    0.0000 O   0  0  0  0  0  0  0  0  0  0  0  0
    0.1334   -0.1638    0.0000 C   0  0  2  0  0  0  0  0  0  0  0  0
   -0.5340    0.3211    0.0000 N   0  0  0  0  0  0  0  0  0  0  0  0
   -1.5876    1.9698    0.0000 H   0  0  0  0  0  0  0  0  0  0  0  0
    1.4948    0.1825    0.0000 H   0  0  0  0  0  0  0  0  0  0  0  0
    1.4948   -1.3351    0.0000 H   0  0  0  0  0  0  0  0  0  0  0  0
    0.2248   -1.5655    0.0000 H   0  0  0  0  0  0  0  0  0  0  0  0
    0.2248    0.4129    0.0000 H   0  0  0  0  0  0  0  0  0  0  0  0
  2  1  1  1  0  0  0
  2  3  1  0  0  0  0
  2 13  1  0  0  0  0
  2 35  1  6  0  0  0
  3  4  1  0  0  0  0
  4  5  2  0  0  0  0
  4  6  1  0  0  0  0
  5  7  1  0  0  0  0
  6  8  2  0  0  0  0
  7  9  2  0  0  0  0
  8  9  1  0  0  0  0
  9 11  1  0  0  0  0
 10 13  2  0  0  0  0
 11 12  1  0  0  0  0
 13 34  1  0  0  0  0
 14 15  1  0  0  0  0
 16 15  1  1  0  0  0
 16 17  1  0  0  0  0
 16 33  1  0  0  0  0
 16 36  1  6  0  0  0
 17 18  1  0  0  0  0
 18 19  1  1  0  0  0
 18 31  1  0  0  0  0
 18 37  1  6  0  0  0
 19 20  1  0  0  0  0
 19 30  1  0  0  0  0
 20 21  2  0  0  0  0
 20 28  1  0  0  0  0
 21 22  1  0  0  0  0
 22 23  2  0  0  0  0
 23 24  1  0  0  0  0
 24 25  1  0  0  0  0
 24 28  2  0  0  0  0
 25 26  1  0  0  0  0
 25 27  1  0  0  0  0
 28 29  1  0  0  0  0
 29 30  2  0  0  0  0
 31 32  1  6  0  0  0
 31 33  1  0  0  0  0
 31 38  1  1  0  0  0
 33 34  1  6  0  0  0
 33 39  1  1  0  0  0
M  END
> <DRUGBANK_ID>
DB08437

> <DRUG_GROUPS>
experimental

> <GENERIC_NAME>
PUROMYCIN

> <CHEMICAL_FORMULA>
C22H29N7O5

> <MOLECULAR_WEIGHT>
471.5096

> <EXACT_MASS>
471.223017073

> <IUPAC_NAME>
(2S)-2-amino-N-[(2S,3S,4R,5R)-5-[6-(dimethylamino)-9H-purin-9-yl]-4-hydroxy-2-(hydroxymethyl)oxolan-3-yl]-3-(4-methoxyphenyl)propanamide

> <IUPAC_TRADITIONAL_NAME>
puromycin

> <INCHI_IDENTIFIER>
InChI=1S/C22H29N7O5/c1-28(2)19-17-20(25-10-24-19)29(11-26-17)22-18(31)16(15(9-30)34-22)27-21(32)14(23)8-12-4-6-13(33-3)7-5-12/h4-7,10-11,14-16,18,22,30-31H,8-9,23H2,1-3H3,(H,27,32)/t14-,15+,16+,18+,22+/m0/s1

> <INCHI_KEY>
InChIKey=RXWNCPJZOCPEPQ-NVWDDTSBSA-N

> <SMILES>
[H][C@](N)(CC1=CC=C(OC)C=C1)C(=O)N[C@]1([H])[C@@]([H])(CO)O[C@@]([H])(N2C=NC3=C(N=CN=C23)N(C)C)[C@]1([H])O

> <JCHEM_ACCEPTOR_COUNT>
10

> <JCHEM_DONOR_COUNT>
4

> <JCHEM_ACIDIC_PKA>
12.35

> <JCHEM_BASIC_PKA>
8.03

> <JCHEM_PHYSIOLOGICAL_CHARGE>
1

> <ALOGPS_LOGP>
-0.1

> <JCHEM_LOGP>
-0.3

> <ALOGPS_LOGS>
-2.7

> <JCHEM_POLARIZABILITY>
49.46

> <JCHEM_POLAR_SURFACE_AREA>
160.88

> <JCHEM_REFRACTIVITY>
122.96

> <JCHEM_ROTATABLE_BOND_COUNT>
8

> <ALOGPS_SOLUBILITY>
1.01e+00 g/l __ 

$$$$
