
  Mrv0541 05111315302D          

 28 30  0  0  0  0            999 V2000
   17.4061  -10.5703    0.0000 C   0  0  0  0  0  0  0  0  0  0  0  0
   16.6916  -10.1578    0.0000 C   0  0  0  0  0  0  0  0  0  0  0  0
   15.9771  -10.5703    0.0000 C   0  0  0  0  0  0  0  0  0  0  0  0
   15.9771  -11.3953    0.0000 C   0  0  0  0  0  0  0  0  0  0  0  0
   16.6916  -11.8078    0.0000 C   0  0  0  0  0  0  0  0  0  0  0  0
   17.4061  -11.3953    0.0000 C   0  0  0  0  0  0  0  0  0  0  0  0
   15.2626  -11.8078    0.0000 N   0  0  0  0  0  0  0  0  0  0  0  0
   15.2626  -12.6328    0.0000 C   0  0  0  0  0  0  0  0  0  0  0  0
   15.9771  -13.0454    0.0000 N   0  0  0  0  0  0  0  0  0  0  0  0
   15.9771  -13.8704    0.0000 C   0  0  0  0  0  0  0  0  0  0  0  0
   15.2626  -14.2829    0.0000 N   0  0  0  0  0  0  0  0  0  0  0  0
   14.5482  -13.8704    0.0000 C   0  0  0  0  0  0  0  0  0  0  0  0
   14.5482  -13.0454    0.0000 C   0  0  0  0  0  0  0  0  0  0  0  0
   16.6916  -14.2829    0.0000 N   0  0  0  0  0  0  0  0  0  0  0  0
   17.4061  -13.8704    0.0000 C   0  0  0  0  0  0  0  0  0  0  0  0
   18.1206  -14.2829    0.0000 C   0  0  0  0  0  0  0  0  0  0  0  0
   18.8350  -13.8704    0.0000 C   0  0  0  0  0  0  0  0  0  0  0  0
   18.8350  -13.0454    0.0000 C   0  0  0  0  0  0  0  0  0  0  0  0
   18.1206  -12.6328    0.0000 C   0  0  0  0  0  0  0  0  0  0  0  0
   17.4061  -13.0454    0.0000 C   0  0  0  0  0  0  0  0  0  0  0  0
   16.6916  -12.6328    0.0000 C   0  0  0  0  0  0  0  0  0  0  0  0
   19.5495  -12.6328    0.0000 C   0  0  0  0  0  0  0  0  0  0  0  0
   20.2640  -12.2203    0.0000 N   0  0  0  0  0  0  0  0  0  0  0  0
   18.1206  -10.1578    0.0000 C   0  0  0  0  0  0  0  0  0  0  0  0
   18.8350  -10.5703    0.0000 C   0  0  0  0  0  0  0  0  0  0  0  0
   19.5495  -10.1578    0.0000 C   0  0  0  0  0  0  0  0  0  0  0  0
   20.2640   -9.7453    0.0000 N   0  0  0  0  0  0  0  0  0  0  0  0
   15.2626  -10.1578    0.0000 C   0  0  0  0  0  0  0  0  0  0  0  0
  1  2  2  0  0  0  0
  2  3  1  0  0  0  0
  3  4  2  0  0  0  0
  4  5  1  0  0  0  0
  5  6  2  0  0  0  0
  1  6  1  0  0  0  0
  4  7  1  0  0  0  0
  7  8  1  0  0  0  0
  8  9  1  0  0  0  0
  9 10  2  0  0  0  0
 10 11  1  0  0  0  0
 11 12  2  0  0  0  0
 12 13  1  0  0  0  0
  8 13  2  0  0  0  0
 10 14  1  0  0  0  0
 14 15  1  0  0  0  0
 15 16  1  0  0  0  0
 16 17  2  0  0  0  0
 17 18  1  0  0  0  0
 18 19  2  0  0  0  0
 19 20  1  0  0  0  0
 15 20  2  0  0  0  0
  5 21  1  0  0  0  0
 18 22  1  0  0  0  0
 22 23  3  0  0  0  0
  1 24  1  0  0  0  0
 24 25  2  0  0  0  0
 25 26  1  0  0  0  0
 26 27  3  0  0  0  0
  3 28  1  0  0  0  0
M  END
> <DRUGBANK_ID>
DB08864

> <DRUG_GROUPS>
approved

> <GENERIC_NAME>
Rilpivirine

> <SALTS>
Rilpivirine Hydrochloride

> <BRANDS>
Edurant

> <CHEMICAL_FORMULA>
C22H18N6

> <MOLECULAR_WEIGHT>
366.4185

> <EXACT_MASS>
366.159294606

> <IUPAC_NAME>
4-{[4-({4-[(1E)-2-cyanoeth-1-en-1-yl]-2,6-dimethylphenyl}amino)pyrimidin-2-yl]amino}benzonitrile

> <IUPAC_TRADITIONAL_NAME>
rilpivirine

> <INCHI_IDENTIFIER>
InChI=1S/C22H18N6/c1-15-12-18(4-3-10-23)13-16(2)21(15)27-20-9-11-25-22(28-20)26-19-7-5-17(14-24)6-8-19/h3-9,11-13H,1-2H3,(H2,25,26,27,28)/b4-3+

> <INCHI_KEY>
InChIKey=YIBOMRUWOWDFLG-ONEGZZNKSA-N

> <SMILES>
CC1=CC(\C=C\C#N)=CC(C)=C1NC1=CC=NC(NC2=CC=C(C=C2)C#N)=N1

> <JCHEM_ACCEPTOR_COUNT>
6

> <JCHEM_DONOR_COUNT>
2

> <JCHEM_ACIDIC_PKA>
12.93

> <JCHEM_BASIC_PKA>
5.16

> <JCHEM_PHYSIOLOGICAL_CHARGE>
0

> <ALOGPS_LOGP>
3.8

> <JCHEM_LOGP>
5.47

> <ALOGPS_LOGS>
-4.5

> <JCHEM_POLARIZABILITY>
40.78

> <JCHEM_POLAR_SURFACE_AREA>
97.42

> <JCHEM_REFRACTIVITY>
111.74

> <JCHEM_ROTATABLE_BOND_COUNT>
5

> <ALOGPS_SOLUBILITY>
1.16e-02 g/l __ 

$$$$
