40279-98-9.mol
  Mrv0541 08271314552D          

 30 33  0  0  0  0            999 V2000
   -1.7862    0.4125    0.0000 N    0  0  0  0  0  0  0  0  0  0  0  0
   -1.0717    0.8250    0.0000 C    0  0  0  0  0  0  0  0  0  0  0  0
   -0.3572    0.4125    0.0000 C    0  0  0  0  0  0  0  0  0  0  0  0
   -0.3572   -0.4125    0.0000 N    0  0  0  0  0  0  0  0  0  0  0  0
   -1.0717   -0.8250    0.0000 C    0  0  0  0  0  0  0  0  0  0  0  0
   -1.7862   -0.4125    0.0000 C    0  0  0  0  0  0  0  0  0  0  0  0
   -3.2151    0.4125    0.0000 C    0  0  0  0  0  0  0  0  0  0  0  0
   -2.5006    0.8250    0.0000 C    0  0  0  0  0  0  0  0  0  0  0  0
    0.3572   -0.8250    0.0000 C    0  0  0  0  0  0  0  0  0  0  0  0
    1.0717   -0.4125    0.0000 C    0  0  0  0  0  0  0  0  0  0  0  0
    1.7862   -0.8250    0.0000 C    0  0  0  0  0  0  0  0  0  0  0  0
    2.5006   -0.4125    0.0000 C    0  0  0  0  0  0  0  0  0  0  0  0
    2.5006    0.4125    0.0000 C    0  0  0  0  0  0  0  0  0  0  0  0
    1.7862    0.8250    0.0000 C    0  0  0  0  0  0  0  0  0  0  0  0
    1.7862    1.6500    0.0000 C    0  0  0  0  0  0  0  0  0  0  0  0
    2.5006    2.0625    0.0000 C    0  0  0  0  0  0  0  0  0  0  0  0
    3.2151    1.6500    0.0000 C    0  0  0  0  0  0  0  0  0  0  0  0
    3.2151    0.8250    0.0000 C    0  0  0  0  0  0  0  0  0  0  0  0
    3.9296    0.4125    0.0000 S    0  0  0  0  0  0  0  0  0  0  0  0
    3.9296   -0.4125    0.0000 C    0  0  0  0  0  0  0  0  0  0  0  0
    4.6441   -0.8250    0.0000 C    0  0  0  0  0  0  0  0  0  0  0  0
    4.6441   -1.6500    0.0000 C    0  0  0  0  0  0  0  0  0  0  0  0
    3.9296   -2.0625    0.0000 C    0  0  0  0  0  0  0  0  0  0  0  0
    3.2151   -1.6500    0.0000 C    0  0  0  0  0  0  0  0  0  0  0  0
    3.2151   -0.8250    0.0000 C    0  0  0  0  0  0  0  0  0  0  0  0
    1.0717    2.0625    0.0000 Cl   0  0  0  0  0  0  0  0  0  0  0  0
   -3.9296   -0.8250    0.0000 C    0  0  0  0  0  0  0  0  0  0  0  0
   -4.6441   -0.4125    0.0000 C    0  0  0  0  0  0  0  0  0  0  0  0
   -3.9296   -1.6500    0.0000 O    0  0  0  0  0  0  0  0  0  0  0  0
   -3.2151   -0.4125    0.0000 O    0  0  0  0  0  0  0  0  0  0  0  0
  1  2  1  0  0  0  0
  2  3  1  0  0  0  0
  3  4  1  0  0  0  0
  4  5  1  0  0  0  0
  5  6  1  0  0  0  0
  1  6  1  0  0  0  0
  7  8  1  0  0  0  0
  1  8  1  0  0  0  0
  9 10  1  0  0  0  0
 10 11  1  0  0  0  0
 12 13  1  0  0  0  0
 13 14  1  0  0  0  0
 14 15  2  0  0  0  0
 15 16  1  0  0  0  0
 16 17  2  0  0  0  0
 17 18  1  0  0  0  0
 13 18  2  0  0  0  0
 18 19  1  0  0  0  0
 19 20  1  0  0  0  0
 20 21  1  0  0  0  0
 21 22  2  0  0  0  0
 22 23  1  0  0  0  0
 23 24  2  0  0  0  0
 24 25  1  0  0  0  0
 20 25  2  0  0  0  0
 12 25  1  0  0  0  0
 15 26  1  0  0  0  0
 11 12  2  0  0  0  0
  4  9  1  0  0  0  0
 27 28  1  0  0  0  0
 27 29  2  0  0  0  0
 27 30  1  0  0  0  0
  7 30  1  0  0  0  0
M  END
> <DRUGBANK_ID>
DB08919

> <DRUG_GROUPS>
experimental; investigational

> <GENERIC_NAME>
Zuclopenthixol acetate

> <BRANDS>
Ciatyl-Z Acuphase; Cisordinol Acutard; Clopixol-Acuphase

> <CHEMICAL_FORMULA>
C24H27ClN2O2S

> <MOLECULAR_WEIGHT>
443.001

> <EXACT_MASS>
442.148176515

> <IUPAC_NAME>
2-(4-{3-[(9Z)-2-chloro-9H-thioxanthen-9-ylidene]propyl}piperazin-1-yl)ethyl acetate

> <IUPAC_TRADITIONAL_NAME>
2-(4-{3-[(9Z)-2-chlorothioxanthen-9-ylidene]propyl}piperazin-1-yl)ethyl acetate

> <INCHI_IDENTIFIER>
InChI=1S/C24H27ClN2O2S/c1-18(28)29-16-15-27-13-11-26(12-14-27)10-4-6-20-21-5-2-3-7-23(21)30-24-9-8-19(25)17-22(20)24/h2-3,5-9,17H,4,10-16H2,1H3/b20-6-

> <INCHI_KEY>
InChIKey=OXAUOBQMCDIVPQ-IOXNKQMXSA-N

> <SMILES>
CC(=O)OCCN1CCN(CC\C=C2\C3=C(SC4=C2C=C(Cl)C=C4)C=CC=C3)CC1

> <JCHEM_ACCEPTOR_COUNT>
3

> <JCHEM_DONOR_COUNT>
0

> <JCHEM_BASIC_PKA>
8.25

> <JCHEM_PHYSIOLOGICAL_CHARGE>
1

> <ALOGPS_LOGP>
4.79

> <JCHEM_LOGP>
4.66

> <ALOGPS_LOGS>
-5.9

> <JCHEM_POLARIZABILITY>
49.79

> <JCHEM_POLAR_SURFACE_AREA>
32.78

> <JCHEM_REFRACTIVITY>
136.15

> <JCHEM_ROTATABLE_BOND_COUNT>
7

> <ALOGPS_SOLUBILITY>
5.56e-04 g/l __ 

$$$$
