TSS
  Mrv0541 02241214142D          

 12 13  0  0  0  0            999 V2000
   -1.4775    1.8207    0.0000 N   0  0  0  0  0  0  0  0  0  0  0  0
   -1.2226    1.0361    0.0000 C   0  0  0  0  0  0  0  0  0  0  0  0
   -0.4156    0.8646    0.0000 C   0  0  0  0  0  0  0  0  0  0  0  0
   -0.1607    0.0799    0.0000 C   0  0  0  0  0  0  0  0  0  0  0  0
   -0.6456   -0.5875    0.0000 C   0  0  0  0  0  0  0  0  0  0  0  0
   -0.1607   -1.2549    0.0000 N   0  0  0  0  0  0  0  0  0  0  0  0
    0.6239   -1.0000    0.0000 C   0  0  0  0  0  0  0  0  0  0  0  0
    0.6239   -0.1750    0.0000 C   0  0  0  0  0  0  0  0  0  0  0  0
    1.3384   -1.4125    0.0000 C   0  0  0  0  0  0  0  0  0  0  0  0
    2.0529   -1.0000    0.0000 C   0  0  0  0  0  0  0  0  0  0  0  0
    2.0529   -0.1750    0.0000 C   0  0  0  0  0  0  0  0  0  0  0  0
    1.3384    0.2375    0.0000 C   0  0  0  0  0  0  0  0  0  0  0  0
  1  2  1  0  0  0  0
  2  3  1  0  0  0  0
  3  4  1  0  0  0  0
  4  5  2  0  0  0  0
  4  8  1  0  0  0  0
  5  6  1  0  0  0  0
  6  7  1  0  0  0  0
  7  8  1  0  0  0  0
  7  9  2  0  0  0  0
  8 12  2  0  0  0  0
  9 10  1  0  0  0  0
 10 11  2  0  0  0  0
 11 12  1  0  0  0  0
M  END
> <DRUGBANK_ID>
DB08653

> <DRUG_GROUPS>
experimental

> <GENERIC_NAME>
2-(1H-INDOL-3-YL)ETHANAMINE

> <CHEMICAL_FORMULA>
C10H12N2

> <MOLECULAR_WEIGHT>
160.2157

> <EXACT_MASS>
160.100048394

> <IUPAC_NAME>
2-(1H-indol-3-yl)ethan-1-amine

> <IUPAC_TRADITIONAL_NAME>
tryptamine

> <INCHI_IDENTIFIER>
InChI=1S/C10H12N2/c11-6-5-8-7-12-10-4-2-1-3-9(8)10/h1-4,7,12H,5-6,11H2

> <INCHI_KEY>
InChIKey=APJYDQYYACXCRM-UHFFFAOYSA-N

> <SMILES>
NCCC1=CNC2=CC=CC=C12

> <JCHEM_ACCEPTOR_COUNT>
1

> <JCHEM_DONOR_COUNT>
2

> <JCHEM_ACIDIC_PKA>
17.17

> <JCHEM_BASIC_PKA>
9.73

> <JCHEM_PHYSIOLOGICAL_CHARGE>
1

> <ALOGPS_LOGP>
1.21

> <JCHEM_LOGP>
1.49

> <ALOGPS_LOGS>
-2.1

> <JCHEM_POLARIZABILITY>
18.34

> <JCHEM_POLAR_SURFACE_AREA>
41.81

> <JCHEM_REFRACTIVITY>
50.37

> <JCHEM_ROTATABLE_BOND_COUNT>
2

> <ALOGPS_SOLUBILITY>
1.34e+00 g/l __ 

$$$$
