MYR
  Mrv0541 02241213572D          

 16 15  0  0  0  0            999 V2000
   -4.6643   -0.1789    0.0000 C   0  0  0  0  0  0  0  0  0  0  0  0
   -5.3787    0.2336    0.0000 O   0  0  0  0  0  0  0  0  0  0  0  0
   -4.6643   -1.0039    0.0000 O   0  0  0  0  0  0  0  0  0  0  0  0
   -3.9498    0.2336    0.0000 C   0  0  0  0  0  0  0  0  0  0  0  0
   -3.2353   -0.1789    0.0000 C   0  0  0  0  0  0  0  0  0  0  0  0
   -2.5209    0.2336    0.0000 C   0  0  0  0  0  0  0  0  0  0  0  0
   -1.8064   -0.1789    0.0000 C   0  0  0  0  0  0  0  0  0  0  0  0
   -1.0919    0.2336    0.0000 C   0  0  0  0  0  0  0  0  0  0  0  0
   -0.3774   -0.1789    0.0000 C   0  0  0  0  0  0  0  0  0  0  0  0
    0.3370    0.2336    0.0000 C   0  0  0  0  0  0  0  0  0  0  0  0
    1.0515   -0.1789    0.0000 C   0  0  0  0  0  0  0  0  0  0  0  0
    1.7660    0.2336    0.0000 C   0  0  0  0  0  0  0  0  0  0  0  0
    2.4804   -0.1789    0.0000 C   0  0  0  0  0  0  0  0  0  0  0  0
    3.1949    0.2336    0.0000 C   0  0  0  0  0  0  0  0  0  0  0  0
    3.9094   -0.1789    0.0000 C   0  0  0  0  0  0  0  0  0  0  0  0
    4.6239    0.2336    0.0000 C   0  0  0  0  0  0  0  0  0  0  0  0
  1  2  2  0  0  0  0
  1  3  1  0  0  0  0
  1  4  1  0  0  0  0
  4  5  1  0  0  0  0
  5  6  1  0  0  0  0
  6  7  1  0  0  0  0
  7  8  1  0  0  0  0
  8  9  1  0  0  0  0
  9 10  1  0  0  0  0
 10 11  1  0  0  0  0
 11 12  1  0  0  0  0
 12 13  1  0  0  0  0
 13 14  1  0  0  0  0
 14 15  1  0  0  0  0
 15 16  1  0  0  0  0
M  END
> <DRUGBANK_ID>
DB08231

> <DRUG_GROUPS>
experimental

> <GENERIC_NAME>
MYRISTIC ACID

> <CHEMICAL_FORMULA>
C14H28O2

> <MOLECULAR_WEIGHT>
228.3709

> <EXACT_MASS>
228.20893014

> <IUPAC_NAME>
tetradecanoic acid

> <IUPAC_TRADITIONAL_NAME>
myristic acid

> <INCHI_IDENTIFIER>
InChI=1S/C14H28O2/c1-2-3-4-5-6-7-8-9-10-11-12-13-14(15)16/h2-13H2,1H3,(H,15,16)

> <INCHI_KEY>
InChIKey=TUNFSRHWOTWDNC-UHFFFAOYSA-N

> <SMILES>
CCCCCCCCCCCCCC(O)=O

> <JCHEM_ACCEPTOR_COUNT>
2

> <JCHEM_DONOR_COUNT>
1

> <JCHEM_ACIDIC_PKA>
4.95

> <JCHEM_PHYSIOLOGICAL_CHARGE>
-1

> <ALOGPS_LOGP>
6.1

> <JCHEM_LOGP>
5.37

> <ALOGPS_LOGS>
-5.1

> <JCHEM_POLARIZABILITY>
30.1

> <JCHEM_POLAR_SURFACE_AREA>
37.3

> <JCHEM_REFRACTIVITY>
67.88

> <JCHEM_ROTATABLE_BOND_COUNT>
12

> <ALOGPS_SOLUBILITY>
1.72e-03 g/l __ 

$$$$
