SCF
  Mrv0541 02241214092D          

 24 27  0  0  0  0            999 V2000
   -1.8063    1.3496    0.0000 C   0  0  0  0  0  0  0  0  0  0  0  0
   -1.0217    1.0946    0.0000 C   0  0  0  0  0  0  0  0  0  0  0  0
   -1.0217    0.2696    0.0000 N   0  0  0  0  0  0  0  0  0  0  0  0
   -1.8063    0.0147    0.0000 N   0  0  0  0  0  0  0  0  0  0  0  0
   -2.2913    0.6821    0.0000 C   0  0  0  0  0  0  0  0  0  0  0  0
   -0.3072    1.5071    0.0000 N   0  0  0  0  0  0  0  0  0  0  0  0
    0.4072    1.0946    0.0000 C   0  0  0  0  0  0  0  0  0  0  0  0
    0.4072    0.2696    0.0000 C   0  0  0  0  0  0  0  0  0  0  0  0
   -0.3072   -0.1429    0.0000 C   0  0  0  0  0  0  0  0  0  0  0  0
   -0.3072   -0.9679    0.0000 N   0  0  0  0  0  0  0  0  0  0  0  0
    1.1217    1.5071    0.0000 C   0  0  0  0  0  0  0  0  0  0  0  0
   -1.0217   -1.3804    0.0000 C   0  0  0  0  0  0  0  0  0  0  0  0
   -1.0217   -2.2054    0.0000 C   0  0  0  0  0  0  0  0  0  0  0  0
   -0.3072   -2.6179    0.0000 C   0  0  0  0  0  0  0  0  0  0  0  0
   -0.3072   -3.4429    0.0000 C   0  0  0  0  0  0  0  0  0  0  0  0
   -1.0217   -3.8554    0.0000 N   0  0  0  0  0  0  0  0  0  0  0  0
   -1.7362   -3.4429    0.0000 C   0  0  0  0  0  0  0  0  0  0  0  0
   -1.7362   -2.6179    0.0000 C   0  0  0  0  0  0  0  0  0  0  0  0
    1.8362    1.0946    0.0000 C   0  0  0  0  0  0  0  0  0  0  0  0
    2.5506    1.5071    0.0000 C   0  0  0  0  0  0  0  0  0  0  0  0
    2.5506    2.3321    0.0000 C   0  0  0  0  0  0  0  0  0  0  0  0
    1.8362    2.7446    0.0000 C   0  0  0  0  0  0  0  0  0  0  0  0
    1.1217    2.3321    0.0000 C   0  0  0  0  0  0  0  0  0  0  0  0
    0.4072    2.7446    0.0000 F   0  0  0  0  0  0  0  0  0  0  0  0
  1  2  2  0  0  0  0
  2  6  1  0  0  0  0
  3  9  1  0  0  0  0
  3  2  1  0  0  0  0
  4  5  2  0  0  0  0
  4  3  1  0  0  0  0
  5  1  1  0  0  0  0
  7  6  2  0  0  0  0
  7 11  1  0  0  0  0
  8  7  1  0  0  0  0
  9  8  2  0  0  0  0
 10 12  1  0  0  0  0
 10  9  1  0  0  0  0
 11 23  1  0  0  0  0
 13 14  1  0  0  0  0
 13 12  1  0  0  0  0
 15 14  2  0  0  0  0
 16 15  1  0  0  0  0
 17 16  2  0  0  0  0
 17 18  1  0  0  0  0
 18 13  2  0  0  0  0
 19 11  2  0  0  0  0
 19 20  1  0  0  0  0
 20 21  2  0  0  0  0
 21 22  1  0  0  0  0
 23 24  1  0  0  0  0
 23 22  2  0  0  0  0
M  END
> <DRUGBANK_ID>
DB08534

> <DRUG_GROUPS>
experimental

> <GENERIC_NAME>
5-(2-fluorophenyl)-N-(pyridin-4-ylmethyl)pyrazolo[1,5-a]pyrimidin-7-amine

> <CHEMICAL_FORMULA>
C18H14FN5

> <MOLECULAR_WEIGHT>
319.3357

> <EXACT_MASS>
319.123323678

> <IUPAC_NAME>
5-(2-fluorophenyl)-N-(pyridin-4-ylmethyl)pyrazolo[1,5-a]pyrimidin-7-amine

> <IUPAC_TRADITIONAL_NAME>
5-(2-fluorophenyl)-N-(pyridin-4-ylmethyl)pyrazolo[1,5-a]pyrimidin-7-amine

> <INCHI_IDENTIFIER>
InChI=1S/C18H14FN5/c19-15-4-2-1-3-14(15)16-11-18(24-17(23-16)7-10-22-24)21-12-13-5-8-20-9-6-13/h1-11,21H,12H2

> <INCHI_KEY>
InChIKey=ZAIYYXVHGBMLEC-UHFFFAOYSA-N

> <SMILES>
FC1=CC=CC=C1C1=NC2=CC=NN2C(NCC2=CC=NC=C2)=C1

> <JCHEM_ACCEPTOR_COUNT>
4

> <JCHEM_DONOR_COUNT>
1

> <JCHEM_BASIC_PKA>
5.02

> <JCHEM_PHYSIOLOGICAL_CHARGE>
0

> <ALOGPS_LOGP>
3.25

> <JCHEM_LOGP>
2.9

> <ALOGPS_LOGS>
-4.3

> <JCHEM_POLARIZABILITY>
33.15

> <JCHEM_POLAR_SURFACE_AREA>
55.11

> <JCHEM_REFRACTIVITY>
100.66

> <JCHEM_ROTATABLE_BOND_COUNT>
4

> <ALOGPS_SOLUBILITY>
1.77e-02 g/l __ 

$$$$
