PS0
  Mrv0541 02241214052D          

 14 14  0  0  0  0            999 V2000
   -0.4858    0.9907    0.0000 N   0  0  0  0  0  0  0  0  0  0  0  0
    0.2287    0.5782    0.0000 C   0  0  2  0  0  0  0  0  0  0  0  0
    0.9431    0.9907    0.0000 C   0  0  1  0  0  0  0  0  0  0  0  0
    0.9431    1.8157    0.0000 O   0  0  0  0  0  0  0  0  0  0  0  0
    0.2287   -0.2468    0.0000 C   0  0  0  0  0  0  0  0  0  0  0  0
   -0.4858   -0.6593    0.0000 C   0  0  0  0  0  0  0  0  0  0  0  0
   -0.4858   -1.4843    0.0000 C   0  0  0  0  0  0  0  0  0  0  0  0
   -1.2003   -0.2468    0.0000 C   0  0  0  0  0  0  0  0  0  0  0  0
   -1.2003   -1.8968    0.0000 C   0  0  0  0  0  0  0  0  0  0  0  0
   -1.9148   -0.6593    0.0000 C   0  0  0  0  0  0  0  0  0  0  0  0
   -1.9148   -1.4843    0.0000 C   0  0  0  0  0  0  0  0  0  0  0  0
    1.6576    0.5782    0.0000 C   0  0  0  0  0  0  0  0  0  0  0  0
    0.0289    1.1269    0.0000 H   0  0  0  0  0  0  0  0  0  0  0  0
    0.5678    1.4380    0.0000 H   0  0  0  0  0  0  0  0  0  0  0  0
  2  1  1  6  0  0  0
  2  3  1  0  0  0  0
  2  5  1  0  0  0  0
  2 13  1  1  0  0  0
  3  4  1  1  0  0  0
  3 12  1  0  0  0  0
  3 14  1  6  0  0  0
  5  6  1  0  0  0  0
  6  7  2  0  0  0  0
  6  8  1  0  0  0  0
  7  9  1  0  0  0  0
  8 10  2  0  0  0  0
  9 11  2  0  0  0  0
 10 11  1  0  0  0  0
M  END
> <DRUGBANK_ID>
DB08428

> <DRUG_GROUPS>
experimental

> <GENERIC_NAME>
3(S)-AMINO-4-PHENYL-BUTAN-2(S)-OL

> <CHEMICAL_FORMULA>
C10H15NO

> <MOLECULAR_WEIGHT>
165.2322

> <EXACT_MASS>
165.115364107

> <IUPAC_NAME>
(2S,3S)-3-amino-4-phenylbutan-2-ol

> <IUPAC_TRADITIONAL_NAME>
(2S,3S)-3-amino-4-phenylbutan-2-ol

> <INCHI_IDENTIFIER>
InChI=1S/C10H15NO/c1-8(12)10(11)7-9-5-3-2-4-6-9/h2-6,8,10,12H,7,11H2,1H3/t8-,10-/m0/s1

> <INCHI_KEY>
InChIKey=SMZUMFSKQVVOOV-WPRPVWTQSA-N

> <SMILES>
[H][C@@](C)(O)[C@@]([H])(N)CC1=CC=CC=C1

> <JCHEM_ACCEPTOR_COUNT>
2

> <JCHEM_DONOR_COUNT>
2

> <JCHEM_ACIDIC_PKA>
14.92

> <JCHEM_BASIC_PKA>
9.47

> <JCHEM_PHYSIOLOGICAL_CHARGE>
1

> <ALOGPS_LOGP>
1.07

> <JCHEM_LOGP>
1.17

> <ALOGPS_LOGS>
-1.4

> <JCHEM_POLARIZABILITY>
18.87

> <JCHEM_POLAR_SURFACE_AREA>
46.25

> <JCHEM_REFRACTIVITY>
49.67

> <JCHEM_ROTATABLE_BOND_COUNT>
3

> <ALOGPS_SOLUBILITY>
7.43e+00 g/l __ 

$$$$
