JNH
  Mrv0541 02241213482D          

 26 28  0  0  0  0            999 V2000
   -1.2510   -1.8878    0.0000 N   0  0  0  0  0  0  0  0  0  0  0  0
   -1.5059   -2.6725    0.0000 C   0  0  1  0  0  0  0  0  0  0  0  0
   -2.3309   -2.6725    0.0000 C   0  0  0  0  0  0  0  0  0  0  0  0
   -2.5858   -1.8878    0.0000 C   0  0  0  0  0  0  0  0  0  0  0  0
   -1.9184   -1.4029    0.0000 C   0  0  0  0  0  0  0  0  0  0  0  0
   -0.4663   -1.6329    0.0000 C   0  0  0  0  0  0  0  0  0  0  0  0
   -0.2948   -0.8259    0.0000 C   0  0  1  0  0  0  0  0  0  0  0  0
    0.1468   -2.1849    0.0000 O   0  0  0  0  0  0  0  0  0  0  0  0
   -0.9079   -0.2739    0.0000 N   0  0  0  0  0  0  0  0  0  0  0  0
    0.4898   -0.5710    0.0000 C   0  0  0  0  0  0  0  0  0  0  0  0
    1.0044    1.8499    0.0000 C   0  0  0  0  0  0  0  0  0  0  0  0
    1.6175    1.2979    0.0000 C   0  0  0  0  0  0  0  0  0  0  0  0
    1.4460    0.4909    0.0000 C   0  0  0  0  0  0  0  0  0  0  0  0
    0.6613    0.2360    0.0000 C   0  0  0  0  0  0  0  0  0  0  0  0
    0.0482    0.7880    0.0000 C   0  0  0  0  0  0  0  0  0  0  0  0
    0.2198    1.5950    0.0000 C   0  0  0  0  0  0  0  0  0  0  0  0
    1.5190    4.2708    0.0000 C   0  0  0  0  0  0  0  0  0  0  0  0
    2.1321    3.7188    0.0000 C   0  0  0  0  0  0  0  0  0  0  0  0
    1.9605    2.9118    0.0000 C   0  0  0  0  0  0  0  0  0  0  0  0
    1.1759    2.6569    0.0000 C   0  0  0  0  0  0  0  0  0  0  0  0
    0.5628    3.2089    0.0000 C   0  0  0  0  0  0  0  0  0  0  0  0
    0.7343    4.0159    0.0000 C   0  0  0  0  0  0  0  0  0  0  0  0
   -1.0210   -3.3399    0.0000 C   0  0  0  0  0  0  0  0  0  0  0  0
   -0.2005   -3.2537    0.0000 N   0  0  0  0  0  0  0  0  0  0  0  0
   -0.9292   -2.5811    0.0000 H   0  0  0  0  0  0  0  0  0  0  0  0
   -0.8502   -1.0064    0.0000 H   0  0  0  0  0  0  0  0  0  0  0  0
  1  2  1  0  0  0  0
  1  5  1  0  0  0  0
  1  6  1  0  0  0  0
  2  3  1  0  0  0  0
  2 23  1  6  0  0  0
  2 25  1  1  0  0  0
  3  4  1  0  0  0  0
  4  5  1  0  0  0  0
  6  7  1  0  0  0  0
  6  8  2  0  0  0  0
  7  9  1  1  0  0  0
  7 10  1  0  0  0  0
  7 26  1  6  0  0  0
 10 14  1  0  0  0  0
 11 12  1  0  0  0  0
 11 16  2  0  0  0  0
 11 20  1  0  0  0  0
 12 13  2  0  0  0  0
 13 14  1  0  0  0  0
 14 15  2  0  0  0  0
 15 16  1  0  0  0  0
 17 18  1  0  0  0  0
 17 22  2  0  0  0  0
 18 19  2  0  0  0  0
 19 20  1  0  0  0  0
 20 21  2  0  0  0  0
 21 22  1  0  0  0  0
 23 24  1  0  0  0  0
M  END
> <DRUGBANK_ID>
DB08024

> <DRUG_GROUPS>
experimental

> <GENERIC_NAME>
1-[2-(S)-AMINO-3-BIPHENYL-4-YL-PROPIONYL]-PYRROLIDINE-2-(S)-CARBONITRILE

> <CHEMICAL_FORMULA>
C20H25N3O

> <MOLECULAR_WEIGHT>
323.432

> <EXACT_MASS>
323.199762437

> <IUPAC_NAME>
(2S)-2-amino-1-[(2S)-2-(aminomethyl)pyrrolidin-1-yl]-3-(4-phenylphenyl)propan-1-one

> <IUPAC_TRADITIONAL_NAME>
(2S)-2-amino-1-[(2S)-2-(aminomethyl)pyrrolidin-1-yl]-3-(4-phenylphenyl)propan-1-one

> <INCHI_IDENTIFIER>
InChI=1S/C20H25N3O/c21-14-18-7-4-12-23(18)20(24)19(22)13-15-8-10-17(11-9-15)16-5-2-1-3-6-16/h1-3,5-6,8-11,18-19H,4,7,12-14,21-22H2/t18-,19-/m0/s1

> <INCHI_KEY>
InChIKey=MUUVLSCVDXKQQV-OALUTQOASA-N

> <SMILES>
[H][C@](N)(CC1=CC=C(C=C1)C1=CC=CC=C1)C(=O)N1CCC[C@@]1([H])CN

> <JCHEM_ACCEPTOR_COUNT>
3

> <JCHEM_DONOR_COUNT>
2

> <JCHEM_BASIC_PKA>
9.2

> <JCHEM_PHYSIOLOGICAL_CHARGE>
2

> <ALOGPS_LOGP>
1.69

> <JCHEM_LOGP>
2.03

> <ALOGPS_LOGS>
-3.7

> <JCHEM_POLARIZABILITY>
37.68

> <JCHEM_POLAR_SURFACE_AREA>
72.35

> <JCHEM_REFRACTIVITY>
97.03

> <JCHEM_ROTATABLE_BOND_COUNT>
5

> <ALOGPS_SOLUBILITY>
6.66e-02 g/l __ 

$$$$
