PNE
  Mrv0541 02241214042D          

 25 25  0  0  0  0            999 V2000
   -1.8181   -1.6792    0.0000 P   0  0  1  0  0  0  0  0  0  0  0  0
   -2.5842   -1.3730    0.0000 O   0  0  0  0  0  0  0  0  0  0  0  0
   -1.5119   -0.9132    0.0000 O   0  0  0  0  0  0  0  0  0  0  0  0
   -2.1243   -2.4453    0.0000 O   0  0  0  0  0  0  0  0  0  0  0  0
   -1.0520   -1.9854    0.0000 C   0  0  0  0  0  0  0  0  0  0  0  0
   -0.4038   -1.4751    0.0000 C   0  0  0  0  0  0  0  0  0  0  0  0
    0.3622   -1.7813    0.0000 C   0  0  0  0  0  0  0  0  0  0  0  0
    1.0105   -1.2710    0.0000 C   0  0  0  0  0  0  0  0  0  0  0  0
    1.7765   -1.5772    0.0000 N   0  0  0  0  0  0  0  0  0  0  0  0
    0.8926   -0.4544    0.0000 O   0  0  0  0  0  0  0  0  0  0  0  0
    2.4247   -1.0668    0.0000 C   0  0  1  0  0  0  0  0  0  0  0  0
    2.3069   -0.2503    0.0000 C   0  0  0  0  0  0  0  0  0  0  0  0
    3.1908   -1.3730    0.0000 C   0  0  0  0  0  0  0  0  0  0  0  0
    3.8390   -0.8627    0.0000 O   0  0  0  0  0  0  0  0  0  0  0  0
    3.3087   -2.1896    0.0000 O   0  0  0  0  0  0  0  0  0  0  0  0
   -3.2324   -1.8834    0.0000 C   0  0  0  0  0  0  0  0  0  0  0  0
   -3.1145   -2.6999    0.0000 C   0  0  0  0  0  0  0  0  0  0  0  0
   -3.9985   -1.5772    0.0000 C   0  0  0  0  0  0  0  0  0  0  0  0
   -4.5288   -2.9040    0.0000 C   0  0  0  0  0  0  0  0  0  0  0  0
   -4.6467   -2.0875    0.0000 C   0  0  0  0  0  0  0  0  0  0  0  0
   -3.7628   -3.2102    0.0000 C   0  0  0  0  0  0  0  0  0  0  0  0
   -5.1770   -3.4144    0.0000 N   0  3  0  0  0  0  0  0  0  0  0  0
   -5.0592   -4.2309    0.0000 O   0  0  0  0  0  0  0  0  0  0  0  0
   -5.9431   -3.1082    0.0000 O   0  5  0  0  0  0  0  0  0  0  0  0
    1.8825   -0.8501    0.0000 H   0  0  0  0  0  0  0  0  0  0  0  0
  1  2  1  6  0  0  0
  1  3  1  1  0  0  0
  1  4  2  0  0  0  0
  1  5  1  0  0  0  0
  2 16  1  0  0  0  0
  5  6  1  0  0  0  0
  6  7  1  0  0  0  0
  7  8  1  0  0  0  0
  8  9  1  0  0  0  0
  8 10  2  0  0  0  0
  9 11  1  0  0  0  0
 11 12  1  1  0  0  0
 11 13  1  0  0  0  0
 11 25  1  6  0  0  0
 13 14  2  0  0  0  0
 13 15  1  0  0  0  0
 16 17  2  0  0  0  0
 16 18  1  0  0  0  0
 17 21  1  0  0  0  0
 18 20  2  0  0  0  0
 19 20  1  0  0  0  0
 19 21  2  0  0  0  0
 19 22  1  0  0  0  0
 22 23  2  0  0  0  0
 22 24  1  0  0  0  0
M  END
> <DRUGBANK_ID>
DB08411

> <DRUG_GROUPS>
experimental

> <GENERIC_NAME>
PARA-NITROPHENYL PHOSPHONOBUTANOYL L-ALANINE

> <CHEMICAL_FORMULA>
C13H17N2O8P

> <MOLECULAR_WEIGHT>
360.2564

> <EXACT_MASS>
360.072252042

> <IUPAC_NAME>
(2S)-2-{4-[hydroxy(4-nitrophenoxy)phosphoryl]butanamido}propanoic acid

> <IUPAC_TRADITIONAL_NAME>
(2S)-2-{4-[hydroxy(4-nitrophenoxy)phosphoryl]butanamido}propanoic acid

> <INCHI_IDENTIFIER>
InChI=1S/C13H17N2O8P/c1-9(13(17)18)14-12(16)3-2-8-24(21,22)23-11-6-4-10(5-7-11)15(19)20/h4-7,9H,2-3,8H2,1H3,(H,14,16)(H,17,18)(H,21,22)/t9-/m0/s1

> <INCHI_KEY>
InChIKey=KBXXIYHMPQZHCH-VIFPVBQESA-N

> <SMILES>
[H][C@@](C)(NC(=O)CCC[P@](O)(=O)OC1=CC=C(C=C1)[N+]([O-])=O)C(O)=O

> <JCHEM_ACCEPTOR_COUNT>
7

> <JCHEM_DONOR_COUNT>
3

> <JCHEM_ACIDIC_PKA>
1.81

> <JCHEM_BASIC_PKA>
-1.1

> <JCHEM_PHYSIOLOGICAL_CHARGE>
-2

> <ALOGPS_LOGP>
0.44

> <JCHEM_LOGP>
0.46

> <ALOGPS_LOGS>
-3.5

> <JCHEM_POLARIZABILITY>
32.07

> <JCHEM_POLAR_SURFACE_AREA>
158.75

> <JCHEM_REFRACTIVITY>
81.72

> <JCHEM_ROTATABLE_BOND_COUNT>
9

> <ALOGPS_SOLUBILITY>
1.08e-01 g/l __ 

$$$$
