J60
  Mrv0541 02241213472D          

 29 31  0  0  0  0            999 V2000
   -2.3750   -6.3865    0.0000 C    0  0  0  0  0  0  0  0  0  0  0  0
   -1.6605   -6.7990    0.0000 C    0  0  0  0  0  0  0  0  0  0  0  0
   -0.9460   -6.3865    0.0000 N    0  0  0  0  0  0  0  0  0  0  0  0
   -0.9460   -5.5615    0.0000 C    0  0  0  0  0  0  0  0  0  0  0  0
   -0.2316   -5.1490    0.0000 C    0  0  0  0  0  0  0  0  0  0  0  0
   -0.2316   -6.7990    0.0000 C    0  0  0  0  0  0  0  0  0  0  0  0
    0.4829   -6.3865    0.0000 C    0  0  0  0  0  0  0  0  0  0  0  0
    1.1974   -6.7990    0.0000 N    0  0  0  0  0  0  0  0  0  0  0  0
    1.9118   -6.3865    0.0000 C    0  0  0  0  0  0  0  0  0  0  0  0
    2.6263   -6.7990    0.0000 O    0  0  0  0  0  0  0  0  0  0  0  0
    1.9118   -5.5615    0.0000 C    0  0  0  0  0  0  0  0  0  0  0  0
    1.2444   -5.0766    0.0000 C    0  0  0  0  0  0  0  0  0  0  0  0
    0.4598   -5.3315    0.0000 C    0  0  0  0  0  0  0  0  0  0  0  0
    2.5793   -5.0766    0.0000 C    0  0  0  0  0  0  0  0  0  0  0  0
    3.3639   -5.3315    0.0000 C    0  0  0  0  0  0  0  0  0  0  0  0
    2.3243   -4.2920    0.0000 N    0  0  0  0  0  0  0  0  0  0  0  0
    1.4993   -4.2920    0.0000 C    0  0  0  0  0  0  0  0  0  0  0  0
    1.0144   -3.6245    0.0000 C    0  0  0  0  0  0  0  0  0  0  0  0
    1.3500   -2.8708    0.0000 C    0  0  0  0  0  0  0  0  0  0  0  0
    0.9375   -2.1564    0.0000 C    0  0  0  0  0  0  0  0  0  0  0  0
    0.1305   -1.9848    0.0000 C    0  0  0  0  0  0  0  0  0  0  0  0
   -0.1244   -1.2002    0.0000 C    0  0  0  0  0  0  0  0  0  0  0  0
   -0.9314   -1.0287    0.0000 Cl   0  0  0  0  0  0  0  0  0  0  0  0
    0.4276   -0.5871    0.0000 C    0  0  0  0  0  0  0  0  0  0  0  0
    1.2346   -0.7587    0.0000 C    0  0  0  0  0  0  0  0  0  0  0  0
    1.4895   -1.5433    0.0000 C    0  0  0  0  0  0  0  0  0  0  0  0
    2.2432   -1.8788    0.0000 N    0  0  0  0  0  0  0  0  0  0  0  0
    2.1569   -2.6993    0.0000 C    0  0  0  0  0  0  0  0  0  0  0  0
    2.7700   -3.2513    0.0000 O    0  0  0  0  0  0  0  0  0  0  0  0
  1  2  1  0  0  0  0
  2  3  1  0  0  0  0
  3  4  1  0  0  0  0
  3  6  1  0  0  0  0
  4  5  1  0  0  0  0
  6  7  1  0  0  0  0
  7  8  1  0  0  0  0
  8  9  1  0  0  0  0
  9 10  2  0  0  0  0
  9 11  1  0  0  0  0
 11 12  1  0  0  0  0
 11 14  2  0  0  0  0
 12 13  1  0  0  0  0
 12 17  2  0  0  0  0
 14 15  1  0  0  0  0
 14 16  1  0  0  0  0
 16 17  1  0  0  0  0
 17 18  1  0  0  0  0
 18 19  2  0  0  0  0
 19 20  1  0  0  0  0
 19 28  1  0  0  0  0
 20 21  1  0  0  0  0
 20 26  2  0  0  0  0
 21 22  2  0  0  0  0
 22 23  1  0  0  0  0
 22 24  1  0  0  0  0
 24 25  2  0  0  0  0
 25 26  1  0  0  0  0
 26 27  1  0  0  0  0
 27 28  1  0  0  0  0
 28 29  2  0  0  0  0
M  END
> <DRUGBANK_ID>
DB08009

> <DRUG_GROUPS>
experimental

> <GENERIC_NAME>
5-[(E)-(5-CHLORO-2-OXO-1,2-DIHYDRO-3H-INDOL-3-YLIDENE)METHYL]-N-[2-(DIETHYLAMINO)ETHYL]-2,4-DIMETHYL-1H-PYRROLE-3-CARBOXAMIDE

> <CHEMICAL_FORMULA>
C22H27ClN4O2

> <MOLECULAR_WEIGHT>
414.928

> <EXACT_MASS>
414.182253835

> <IUPAC_NAME>
5-{[(3Z)-5-chloro-2-oxo-2,3-dihydro-1H-indol-3-ylidene]methyl}-N-[2-(diethylamino)ethyl]-2,4-dimethyl-1H-pyrrole-3-carboxamide

> <IUPAC_TRADITIONAL_NAME>
5-{[(3Z)-5-chloro-2-oxo-1H-indol-3-ylidene]methyl}-N-[2-(diethylamino)ethyl]-2,4-dimethyl-1H-pyrrole-3-carboxamide

> <INCHI_IDENTIFIER>
InChI=1S/C22H27ClN4O2/c1-5-27(6-2)10-9-24-22(29)20-13(3)19(25-14(20)4)12-17-16-11-15(23)7-8-18(16)26-21(17)28/h7-8,11-12,25H,5-6,9-10H2,1-4H3,(H,24,29)(H,26,28)/b17-12-

> <INCHI_KEY>
InChIKey=XPLJEFSRINKZLC-ATVHPVEESA-N

> <SMILES>
CCN(CC)CCNC(=O)C1=C(C)NC(\C=C2/C(=O)NC3=C2C=C(Cl)C=C3)=C1C

> <JCHEM_ACCEPTOR_COUNT>
3

> <JCHEM_DONOR_COUNT>
3

> <JCHEM_ACIDIC_PKA>
11.27

> <JCHEM_BASIC_PKA>
9.04

> <JCHEM_PHYSIOLOGICAL_CHARGE>
1

> <ALOGPS_LOGP>
3.64

> <JCHEM_LOGP>
3.39

> <ALOGPS_LOGS>
-4.3

> <JCHEM_POLARIZABILITY>
46.59

> <JCHEM_POLAR_SURFACE_AREA>
77.23

> <JCHEM_REFRACTIVITY>
120.85

> <JCHEM_ROTATABLE_BOND_COUNT>
7

> <ALOGPS_SOLUBILITY>
2.20e-02 g/l __ 

$$$$
