LZK
  Mrv0541 02241213532D          

 22 24  0  0  0  0            999 V2000
   -1.3623  -10.2636    0.0000 N   0  0  0  0  0  0  0  0  0  0  0  0
   -0.6478  -10.6761    0.0000 C   0  0  0  0  0  0  0  0  0  0  0  0
    0.0667  -10.2636    0.0000 N   0  0  0  0  0  0  0  0  0  0  0  0
   -0.6478  -11.5011    0.0000 N   0  0  0  0  0  0  0  0  0  0  0  0
    0.0667  -11.9136    0.0000 C   0  0  0  0  0  0  0  0  0  0  0  0
    0.7811  -11.5011    0.0000 C   0  0  0  0  0  0  0  0  0  0  0  0
    0.7811  -10.6761    0.0000 C   0  0  0  0  0  0  0  0  0  0  0  0
    1.4956  -10.2636    0.0000 N   0  0  0  0  0  0  0  0  0  0  0  0
    2.2101  -10.6761    0.0000 C   0  0  0  0  0  0  0  0  0  0  0  0
    2.9246  -10.2636    0.0000 N   0  0  0  0  0  0  0  0  0  0  0  0
    1.4956  -11.9136    0.0000 C   0  0  0  0  0  0  0  0  0  0  0  0
    2.2101  -11.5011    0.0000 C   0  0  0  0  0  0  0  0  0  0  0  0
    2.9246  -11.9136    0.0000 C   0  0  0  0  0  0  0  0  0  0  0  0
    3.6390  -11.5011    0.0000 C   0  0  0  0  0  0  0  0  0  0  0  0
    3.6390  -10.6761    0.0000 O   0  0  0  0  0  0  0  0  0  0  0  0
    4.3535  -10.2636    0.0000 C   0  0  0  0  0  0  0  0  0  0  0  0
    2.9246  -12.7386    0.0000 C   0  0  0  0  0  0  0  0  0  0  0  0
    2.2101  -13.1511    0.0000 O   0  0  0  0  0  0  0  0  0  0  0  0
    2.2101  -13.9761    0.0000 C   0  0  0  0  0  0  0  0  0  0  0  0
    3.6390  -13.1511    0.0000 C   0  0  0  0  0  0  0  0  0  0  0  0
    4.3535  -12.7386    0.0000 C   0  0  0  0  0  0  0  0  0  0  0  0
    4.3535  -11.9136    0.0000 C   0  0  0  0  0  0  0  0  0  0  0  0
  1  2  1  0  0  0  0
  2  3  1  0  0  0  0
  2  4  2  0  0  0  0
  3  7  2  0  0  0  0
  4  5  1  0  0  0  0
  5  6  2  0  0  0  0
  6  7  1  0  0  0  0
  6 11  1  0  0  0  0
  7  8  1  0  0  0  0
  8  9  2  0  0  0  0
  9 10  1  0  0  0  0
  9 12  1  0  0  0  0
 11 12  2  0  0  0  0
 12 13  1  0  0  0  0
 13 14  1  0  0  0  0
 13 17  2  0  0  0  0
 14 15  1  0  0  0  0
 14 22  2  0  0  0  0
 15 16  1  0  0  0  0
 17 18  1  0  0  0  0
 17 20  1  0  0  0  0
 18 19  1  0  0  0  0
 20 21  2  0  0  0  0
 21 22  1  0  0  0  0
M  END
> <DRUGBANK_ID>
DB08145

> <DRUG_GROUPS>
experimental

> <GENERIC_NAME>
6-(2,6-DIMETHOXYPHENYL)PYRIDO[2,3-D]PYRIMIDINE-2,7-DIAMINE

> <CHEMICAL_FORMULA>
C15H15N5O2

> <MOLECULAR_WEIGHT>
297.3119

> <EXACT_MASS>
297.122574749

> <IUPAC_NAME>
6-(2,6-dimethoxyphenyl)pyrido[2,3-d]pyrimidine-2,7-diamine

> <IUPAC_TRADITIONAL_NAME>
6-(2,6-dimethoxyphenyl)pyrido[2,3-d]pyrimidine-2,7-diamine

> <INCHI_IDENTIFIER>
InChI=1S/C15H15N5O2/c1-21-10-4-3-5-11(22-2)12(10)9-6-8-7-18-15(17)20-14(8)19-13(9)16/h3-7H,1-2H3,(H4,16,17,18,19,20)

> <INCHI_KEY>
InChIKey=LRPHIAJXODIASX-UHFFFAOYSA-N

> <SMILES>
COC1=CC=CC(OC)=C1C1=CC2=CN=C(N)N=C2N=C1N

> <JCHEM_ACCEPTOR_COUNT>
7

> <JCHEM_DONOR_COUNT>
2

> <JCHEM_ACIDIC_PKA>
15.82

> <JCHEM_BASIC_PKA>
4.49

> <JCHEM_PHYSIOLOGICAL_CHARGE>
0

> <ALOGPS_LOGP>
2.07

> <JCHEM_LOGP>
1.48

> <ALOGPS_LOGS>
-3

> <JCHEM_POLARIZABILITY>
30.41

> <JCHEM_POLAR_SURFACE_AREA>
109.17

> <JCHEM_REFRACTIVITY>
85.94

> <JCHEM_ROTATABLE_BOND_COUNT>
2

> <ALOGPS_SOLUBILITY>
3.13e-01 g/l __ 

$$$$
