RFX
  Mrv0541 02241214072D          

 23 24  0  0  0  0            999 V2000
   -3.4890    1.2134    0.0000 F   0  0  0  0  0  0  0  0  0  0  0  0
   -2.7745    0.8009    0.0000 C   0  0  0  0  0  0  0  0  0  0  0  0
   -3.1870    0.0864    0.0000 F   0  0  0  0  0  0  0  0  0  0  0  0
   -2.3620    1.5153    0.0000 F   0  0  0  0  0  0  0  0  0  0  0  0
   -2.0600    0.3884    0.0000 C   0  0  0  0  0  0  0  0  0  0  0  0
   -1.3456    0.8009    0.0000 C   0  0  0  0  0  0  0  0  0  0  0  0
   -0.6311    0.3884    0.0000 C   0  0  0  0  0  0  0  0  0  0  0  0
   -0.6311   -0.4366    0.0000 C   0  0  0  0  0  0  0  0  0  0  0  0
   -1.3456   -0.8491    0.0000 C   0  0  0  0  0  0  0  0  0  0  0  0
   -2.0600   -0.4366    0.0000 C   0  0  0  0  0  0  0  0  0  0  0  0
    0.0834   -0.8491    0.0000 O   0  0  0  0  0  0  0  0  0  0  0  0
    0.7978   -0.4366    0.0000 C   0  0  2  0  0  0  0  0  0  0  0  0
    1.5123   -0.8491    0.0000 C   0  0  0  0  0  0  0  0  0  0  0  0
    2.2268   -0.4366    0.0000 C   0  0  0  0  0  0  0  0  0  0  0  0
    2.9413   -0.8491    0.0000 N   0  0  0  0  0  0  0  0  0  0  0  0
    3.6557   -0.4366    0.0000 C   0  0  0  0  0  0  0  0  0  0  0  0
    0.7978    0.3884    0.0000 C   0  0  0  0  0  0  0  0  0  0  0  0
    1.5123    0.8009    0.0000 C   0  0  0  0  0  0  0  0  0  0  0  0
    1.5123    1.6259    0.0000 C   0  0  0  0  0  0  0  0  0  0  0  0
    0.7978    2.0384    0.0000 C   0  0  0  0  0  0  0  0  0  0  0  0
    0.0834    1.6259    0.0000 C   0  0  0  0  0  0  0  0  0  0  0  0
    0.0834    0.8009    0.0000 C   0  0  0  0  0  0  0  0  0  0  0  0
    0.2921   -0.1447    0.0000 H   0  0  0  0  0  0  0  0  0  0  0  0
  1  2  1  0  0  0  0
  2  3  1  0  0  0  0
  2  5  1  0  0  0  0
  4  2  1  0  0  0  0
  5  6  1  0  0  0  0
  6  7  2  0  0  0  0
  8  7  1  0  0  0  0
  8 11  1  0  0  0  0
  9  8  2  0  0  0  0
 10  5  2  0  0  0  0
 10  9  1  0  0  0  0
 12 11  1  1  0  0  0
 12 17  1  0  0  0  0
 12 13  1  0  0  0  0
 12 23  1  6  0  0  0
 14 13  1  0  0  0  0
 14 15  1  0  0  0  0
 15 16  1  0  0  0  0
 17 22  1  0  0  0  0
 18 17  2  0  0  0  0
 18 19  1  0  0  0  0
 19 20  2  0  0  0  0
 20 21  1  0  0  0  0
 22 21  2  0  0  0  0
M  END
> <DRUGBANK_ID>
DB08472

> <DRUG_GROUPS>
experimental

> <GENERIC_NAME>
(3R)-N-methyl-3-phenyl-3-[4-(trifluoromethyl)phenoxy]propan-1-amine

> <CHEMICAL_FORMULA>
C17H18F3NO

> <MOLECULAR_WEIGHT>
309.3261

> <EXACT_MASS>
309.134048818

> <IUPAC_NAME>
methyl[(3R)-3-phenyl-3-[4-(trifluoromethyl)phenoxy]propyl]amine

> <IUPAC_TRADITIONAL_NAME>
methyl[(3R)-3-phenyl-3-[4-(trifluoromethyl)phenoxy]propyl]amine

> <INCHI_IDENTIFIER>
InChI=1S/C17H18F3NO/c1-21-12-11-16(13-5-3-2-4-6-13)22-15-9-7-14(8-10-15)17(18,19)20/h2-10,16,21H,11-12H2,1H3/t16-/m1/s1

> <INCHI_KEY>
InChIKey=RTHCYVBBDHJXIQ-MRXNPFEDSA-N

> <SMILES>
[H][C@](CCNC)(OC1=CC=C(C=C1)C(F)(F)F)C1=CC=CC=C1

> <JCHEM_ACCEPTOR_COUNT>
2

> <JCHEM_DONOR_COUNT>
1

> <JCHEM_BASIC_PKA>
9.8

> <JCHEM_PHYSIOLOGICAL_CHARGE>
1

> <ALOGPS_LOGP>
4.09

> <JCHEM_LOGP>
4.17

> <ALOGPS_LOGS>
-5.3

> <JCHEM_POLARIZABILITY>
30.32

> <JCHEM_POLAR_SURFACE_AREA>
21.26

> <JCHEM_REFRACTIVITY>
80.37

> <JCHEM_ROTATABLE_BOND_COUNT>
7

> <ALOGPS_SOLUBILITY>
1.70e-03 g/l __ 

$$$$
