U12
  Mrv0541 02241214142D          

 19 20  0  0  0  0            999 V2000
   -2.3359    2.4033    0.0000 F   0  0  0  0  0  0  0  0  0  0  0  0
   -1.6214    1.9908    0.0000 C   0  0  0  0  0  0  0  0  0  0  0  0
   -2.0339    1.2763    0.0000 F   0  0  0  0  0  0  0  0  0  0  0  0
   -1.2089    2.7052    0.0000 F   0  0  0  0  0  0  0  0  0  0  0  0
   -0.9069    1.5783    0.0000 C   0  0  0  0  0  0  0  0  0  0  0  0
   -0.1925    1.9908    0.0000 C   0  0  0  0  0  0  0  0  0  0  0  0
    0.5220    1.5783    0.0000 C   0  0  0  0  0  0  0  0  0  0  0  0
    0.5220    0.7533    0.0000 C   0  0  0  0  0  0  0  0  0  0  0  0
   -0.9069    0.7533    0.0000 C   0  0  0  0  0  0  0  0  0  0  0  0
   -0.1925    0.3408    0.0000 C   0  0  0  0  0  0  0  0  0  0  0  0
   -0.1925   -0.4842    0.0000 N   0  0  0  0  0  0  0  0  0  0  0  0
    0.5220   -0.8967    0.0000 N   0  0  0  0  0  0  0  0  0  0  0  0
    0.5220   -1.7217    0.0000 C   0  0  0  0  0  0  0  0  0  0  0  0
    1.1894   -2.2067    0.0000 C   0  0  0  0  0  0  0  0  0  0  0  0
    1.9741   -1.9517    0.0000 N   0  0  0  0  0  0  0  0  0  0  0  0
    0.9345   -2.9913    0.0000 N   0  0  0  0  0  0  0  0  0  0  0  0
    0.1095   -2.9913    0.0000 N   0  0  0  0  0  0  0  0  0  0  0  0
   -0.1454   -2.2067    0.0000 C   0  0  0  0  0  0  0  0  0  0  0  0
   -0.9301   -1.9517    0.0000 N   0  0  0  0  0  0  0  0  0  0  0  0
  1  2  1  0  0  0  0
  2  3  1  0  0  0  0
  2  4  1  0  0  0  0
  2  5  1  0  0  0  0
  5  6  1  0  0  0  0
  5  9  2  0  0  0  0
  6  7  2  0  0  0  0
  7  8  1  0  0  0  0
  8 10  2  0  0  0  0
  9 10  1  0  0  0  0
 10 11  1  0  0  0  0
 11 12  2  0  0  0  0
 12 13  1  0  0  0  0
 13 14  1  0  0  0  0
 13 18  2  0  0  0  0
 14 15  2  0  0  0  0
 14 16  1  0  0  0  0
 16 17  2  0  0  0  0
 17 18  1  0  0  0  0
 18 19  1  0  0  0  0
M  END
> <DRUGBANK_ID>
DB08666

> <DRUG_GROUPS>
experimental

> <GENERIC_NAME>
5-IMINO-4-(3-TRIFLUOROMETHYL-PHENYLAZO)-5H-PYRAZOL-3-YLAMINE

> <CHEMICAL_FORMULA>
C10H7F3N6

> <MOLECULAR_WEIGHT>
268.198

> <EXACT_MASS>
268.068428869

> <IUPAC_NAME>
3-imino-4-[(E)-2-[3-(trifluoromethyl)phenyl]diazen-1-yl]-3H-pyrazol-5-amine

> <IUPAC_TRADITIONAL_NAME>
5-imino-4-[(E)-2-[3-(trifluoromethyl)phenyl]diazen-1-yl]pyrazol-3-amine

> <INCHI_IDENTIFIER>
InChI=1S/C10H7F3N6/c11-10(12,13)5-2-1-3-6(4-5)16-17-7-8(14)18-19-9(7)15/h1-4,14H,15H2/b14-8?,17-16+

> <INCHI_KEY>
InChIKey=SNTJRGVKGCPNBK-KGQVPBNKSA-N

> <SMILES>
NC1=C(\N=N\C2=CC=CC(=C2)C(F)(F)F)C(=N)N=N1

> <JCHEM_ACCEPTOR_COUNT>
6

> <JCHEM_DONOR_COUNT>
2

> <JCHEM_BASIC_PKA>
3.9

> <JCHEM_PHYSIOLOGICAL_CHARGE>
0

> <ALOGPS_LOGP>
2.97

> <JCHEM_LOGP>
2.02

> <ALOGPS_LOGS>
-4.3

> <JCHEM_POLARIZABILITY>
22.28

> <JCHEM_POLAR_SURFACE_AREA>
99.31

> <JCHEM_REFRACTIVITY>
83.5

> <JCHEM_ROTATABLE_BOND_COUNT>
3

> <ALOGPS_SOLUBILITY>
1.34e-02 g/l __ 

$$$$
