SX6
  Mrv0541 02241214112D          

 32 34  0  0  0  0            999 V2000
   -3.3231   -0.0014    0.0000 O    0  0  0  0  0  0  0  0  0  0  0  0
   -3.3231   -0.8264    0.0000 C    0  0  0  0  0  0  0  0  0  0  0  0
   -4.0376   -1.2389    0.0000 N    0  0  0  0  0  0  0  0  0  0  0  0
   -4.7521   -0.8264    0.0000 C    0  0  0  0  0  0  0  0  0  0  0  0
   -5.4666   -1.2389    0.0000 C    0  0  0  0  0  0  0  0  0  0  0  0
   -5.4666   -2.0639    0.0000 O    0  0  0  0  0  0  0  0  0  0  0  0
   -4.7521   -2.4764    0.0000 C    0  0  0  0  0  0  0  0  0  0  0  0
   -4.0376   -2.0639    0.0000 C    0  0  0  0  0  0  0  0  0  0  0  0
   -2.6087   -1.2389    0.0000 C    0  0  0  0  0  0  0  0  0  0  0  0
   -1.8942   -0.8264    0.0000 C    0  0  0  0  0  0  0  0  0  0  0  0
   -1.1797   -1.2389    0.0000 C    0  0  0  0  0  0  0  0  0  0  0  0
   -1.1797   -2.0639    0.0000 O    0  0  0  0  0  0  0  0  0  0  0  0
   -0.4653   -0.8264    0.0000 N    0  0  0  0  0  0  0  0  0  0  0  0
    0.2492   -1.2389    0.0000 C    0  0  0  0  0  0  0  0  0  0  0  0
    0.2492   -2.0639    0.0000 C    0  0  0  0  0  0  0  0  0  0  0  0
    0.9637   -2.4764    0.0000 C    0  0  0  0  0  0  0  0  0  0  0  0
    1.6781   -2.0639    0.0000 C    0  0  0  0  0  0  0  0  0  0  0  0
    2.3926   -2.4764    0.0000 Br   0  0  0  0  0  0  0  0  0  0  0  0
    1.6781   -1.2389    0.0000 C    0  0  0  0  0  0  0  0  0  0  0  0
    0.9637   -0.8264    0.0000 C    0  0  0  0  0  0  0  0  0  0  0  0
    0.9637   -0.0014    0.0000 C    0  0  0  0  0  0  0  0  0  0  0  0
    0.2492    0.4111    0.0000 O    0  0  0  0  0  0  0  0  0  0  0  0
    1.6781    0.4111    0.0000 N    0  0  0  0  0  0  0  0  0  0  0  0
    2.3926   -0.0014    0.0000 C    0  0  0  0  0  0  0  0  0  0  0  0
    3.1071    0.4111    0.0000 C    0  0  1  0  0  0  0  0  0  0  0  0
    3.8216   -0.0014    0.0000 C    0  0  0  0  0  0  0  0  0  0  0  0
    3.1071    1.2361    0.0000 C    0  0  0  0  0  0  0  0  0  0  0  0
    1.6781    1.2361    0.0000 C    0  0  0  0  0  0  0  0  0  0  0  0
    2.3926    1.6486    0.0000 C    0  0  2  0  0  0  0  0  0  0  0  0
    2.3926    2.4736    0.0000 C    0  0  0  0  0  0  0  0  0  0  0  0
    3.1071   -0.1728    0.0000 H    0  0  0  0  0  0  0  0  0  0  0  0
    2.8983    1.9405    0.0000 H    0  0  0  0  0  0  0  0  0  0  0  0
  1  2  2  0  0  0  0
  2  9  1  0  0  0  0
  3  2  1  0  0  0  0
  3  8  1  0  0  0  0
  4  3  1  0  0  0  0
  5  4  1  0  0  0  0
  5  6  1  0  0  0  0
  6  7  1  0  0  0  0
  7  8  1  0  0  0  0
  9 10  1  0  0  0  0
 10 11  1  0  0  0  0
 11 12  2  0  0  0  0
 13 11  1  0  0  0  0
 13 14  1  0  0  0  0
 14 20  2  0  0  0  0
 14 15  1  0  0  0  0
 15 16  2  0  0  0  0
 16 17  1  0  0  0  0
 17 18  1  0  0  0  0
 19 17  2  0  0  0  0
 20 19  1  0  0  0  0
 21 20  1  0  0  0  0
 21 23  1  0  0  0  0
 22 21  2  0  0  0  0
 23 28  1  0  0  0  0
 24 23  1  0  0  0  0
 24 25  1  0  0  0  0
 25 27  1  0  0  0  0
 25 31  1  1  0  0  0
 25 26  1  6  0  0  0
 27 29  1  0  0  0  0
 28 29  1  0  0  0  0
 29 30  1  6  0  0  0
 29 32  1  1  0  0  0
M  END
> <DRUGBANK_ID>
DB08582

> <DRUG_GROUPS>
experimental

> <GENERIC_NAME>
N-(4-bromo-2-{[(3R,5S)-3,5-dimethylpiperidin-1-yl]carbonyl}phenyl)-4-morpholin-4-yl-4-oxobutanamide

> <CHEMICAL_FORMULA>
C22H30BrN3O4

> <MOLECULAR_WEIGHT>
480.395

> <EXACT_MASS>
479.14196911

> <IUPAC_NAME>
N-(4-bromo-2-{[(3R,5S)-3,5-dimethylpiperidin-1-yl]carbonyl}phenyl)-4-(morpholin-4-yl)-4-oxobutanamide

> <IUPAC_TRADITIONAL_NAME>
N-(4-bromo-2-{[(3R,5S)-3,5-dimethylpiperidin-1-yl]carbonyl}phenyl)-4-(morpholin-4-yl)-4-oxobutanamide

> <INCHI_IDENTIFIER>
InChI=1S/C22H30BrN3O4/c1-15-11-16(2)14-26(13-15)22(29)18-12-17(23)3-4-19(18)24-20(27)5-6-21(28)25-7-9-30-10-8-25/h3-4,12,15-16H,5-11,13-14H2,1-2H3,(H,24,27)/t15-,16+

> <INCHI_KEY>
InChIKey=DELARNBPJXTDBD-IYBDPMFKSA-N

> <SMILES>
[H][C@]1(C)CN(C[C@@]([H])(C)C1)C(=O)C1=C(NC(=O)CCC(=O)N2CCOCC2)C=CC(Br)=C1

> <JCHEM_ACCEPTOR_COUNT>
4

> <JCHEM_DONOR_COUNT>
1

> <JCHEM_ACIDIC_PKA>
12.6

> <JCHEM_BASIC_PKA>
0.085

> <JCHEM_PHYSIOLOGICAL_CHARGE>
0

> <ALOGPS_LOGP>
2.59

> <JCHEM_LOGP>
2.75

> <ALOGPS_LOGS>
-3.6

> <JCHEM_POLARIZABILITY>
48.05

> <JCHEM_POLAR_SURFACE_AREA>
78.95

> <JCHEM_REFRACTIVITY>
120.08

> <JCHEM_ROTATABLE_BOND_COUNT>
5

> <ALOGPS_SOLUBILITY>
1.08e-01 g/l __ 

$$$$
