MI2
  Mrv0541 02241213552D          

 19 21  0  0  0  0            999 V2000
    0.8009   -0.4060    0.0000 C   0  0  0  0  0  0  0  0  0  0  0  0
    0.8009    0.4190    0.0000 C   0  0  0  0  0  0  0  0  0  0  0  0
    0.0163    0.6739    0.0000 N   0  0  0  0  0  0  0  0  0  0  0  0
   -0.4687    0.0065    0.0000 C   0  0  0  0  0  0  0  0  0  0  0  0
    0.0163   -0.6609    0.0000 C   0  0  0  0  0  0  0  0  0  0  0  0
   -1.2937    0.0065    0.0000 C   0  0  0  0  0  0  0  0  0  0  0  0
   -1.7062   -0.7080    0.0000 C   0  0  0  0  0  0  0  0  0  0  0  0
   -2.5312   -0.7080    0.0000 C   0  0  0  0  0  0  0  0  0  0  0  0
   -2.9437    0.0065    0.0000 C   0  0  0  0  0  0  0  0  0  0  0  0
   -2.5312    0.7210    0.0000 C   0  0  0  0  0  0  0  0  0  0  0  0
   -1.7062    0.7210    0.0000 C   0  0  0  0  0  0  0  0  0  0  0  0
   -1.2937    1.4354    0.0000 C   0  0  0  0  0  0  0  0  0  0  0  0
    1.5154    0.8315    0.0000 C   0  0  0  0  0  0  0  0  0  0  0  0
    2.2298    0.4190    0.0000 C   0  0  0  0  0  0  0  0  0  0  0  0
    2.2298   -0.4060    0.0000 C   0  0  0  0  0  0  0  0  0  0  0  0
    1.5154   -0.8185    0.0000 C   0  0  0  0  0  0  0  0  0  0  0  0
    2.9443   -0.8185    0.0000 C   0  0  0  0  0  0  0  0  0  0  0  0
    3.6588   -0.4060    0.0000 N   0  0  0  0  0  0  0  0  0  0  0  0
    2.9443   -1.6435    0.0000 N   0  0  0  0  0  0  0  0  0  0  0  0
  1  2  2  0  0  0  0
  1  5  1  0  0  0  0
  1 16  1  0  0  0  0
  2  3  1  0  0  0  0
  2 13  1  0  0  0  0
  3  4  1  0  0  0  0
  4  5  2  0  0  0  0
  4  6  1  0  0  0  0
  6  7  1  0  0  0  0
  6 11  2  0  0  0  0
  7  8  2  0  0  0  0
  8  9  1  0  0  0  0
  9 10  2  0  0  0  0
 10 11  1  0  0  0  0
 11 12  1  0  0  0  0
 13 14  2  0  0  0  0
 14 15  1  0  0  0  0
 15 16  2  0  0  0  0
 15 17  1  0  0  0  0
 17 18  2  0  0  0  0
 17 19  1  0  0  0  0
M  END
> <DRUGBANK_ID>
DB08184

> <DRUG_GROUPS>
experimental

> <GENERIC_NAME>
2-(2-METHYLPHENYL)-1H-INDOLE-5-CARBOXIMIDAMIDE

> <CHEMICAL_FORMULA>
C16H15N3

> <MOLECULAR_WEIGHT>
249.3104

> <EXACT_MASS>
249.126597495

> <IUPAC_NAME>
2-(2-methylphenyl)-1H-indole-5-carboximidamide

> <IUPAC_TRADITIONAL_NAME>
2-(2-methylphenyl)-1H-indole-5-carboximidamide

> <INCHI_IDENTIFIER>
InChI=1S/C16H15N3/c1-10-4-2-3-5-13(10)15-9-12-8-11(16(17)18)6-7-14(12)19-15/h2-9,19H,1H3,(H3,17,18)

> <INCHI_KEY>
InChIKey=YOZKTHGEOJHIDP-UHFFFAOYSA-N

> <SMILES>
CC1=C(C=CC=C1)C1=CC2=C(N1)C=CC(=C2)C(N)=N

> <JCHEM_ACCEPTOR_COUNT>
2

> <JCHEM_DONOR_COUNT>
3

> <JCHEM_ACIDIC_PKA>
14.96

> <JCHEM_BASIC_PKA>
11.21

> <JCHEM_PHYSIOLOGICAL_CHARGE>
1

> <ALOGPS_LOGP>
2.84

> <JCHEM_LOGP>
3.07

> <ALOGPS_LOGS>
-4.6

> <JCHEM_POLARIZABILITY>
28.8

> <JCHEM_POLAR_SURFACE_AREA>
65.66

> <JCHEM_REFRACTIVITY>
88.87

> <JCHEM_ROTATABLE_BOND_COUNT>
2

> <ALOGPS_SOLUBILITY>
5.87e-03 g/l __ 

$$$$
