NC4
  Mrv0541 02241213582D          

 16 16  0  0  0  0            999 V2000
   -1.7601   -0.0925    0.0000 C   0  0  0  0  0  0  0  0  0  0  0  0
   -1.0457   -0.5050    0.0000 N   0  0  0  0  0  0  0  0  0  0  0  0
   -0.3312   -0.0925    0.0000 C   0  0  0  0  0  0  0  0  0  0  0  0
    0.3833   -0.5050    0.0000 N   0  0  0  0  0  0  0  0  0  0  0  0
    1.0977   -0.0925    0.0000 C   0  0  0  0  0  0  0  0  0  0  0  0
    1.8122   -0.5050    0.0000 C   0  0  0  0  0  0  0  0  0  0  0  0
    2.5267   -0.0925    0.0000 C   0  0  0  0  0  0  0  0  0  0  0  0
    3.2412   -0.5050    0.0000 C   0  0  0  0  0  0  0  0  0  0  0  0
    3.9556   -0.0925    0.0000 O   0  0  0  0  0  0  0  0  0  0  0  0
   -0.3312    0.7325    0.0000 O   0  0  0  0  0  0  0  0  0  0  0  0
    3.2412   -1.3300    0.0000 O   0  0  0  0  0  0  0  0  0  0  0  0
   -2.4746   -0.5050    0.0000 C   0  0  0  0  0  0  0  0  0  0  0  0
   -3.1891   -0.0925    0.0000 C   0  0  0  0  0  0  0  0  0  0  0  0
   -3.1891    0.7325    0.0000 C   0  0  0  0  0  0  0  0  0  0  0  0
   -2.4746    1.1450    0.0000 C   0  0  0  0  0  0  0  0  0  0  0  0
   -1.7601    0.7325    0.0000 C   0  0  0  0  0  0  0  0  0  0  0  0
  1  2  1  0  0  0  0
  1 12  1  0  0  0  0
  1 16  1  0  0  0  0
  2  3  1  0  0  0  0
  3  4  1  0  0  0  0
  3 10  2  0  0  0  0
  4  5  1  0  0  0  0
  5  6  1  0  0  0  0
  6  7  1  0  0  0  0
  7  8  1  0  0  0  0
  8  9  1  0  0  0  0
  8 11  2  0  0  0  0
 12 13  1  0  0  0  0
 13 14  1  0  0  0  0
 14 15  1  0  0  0  0
 15 16  1  0  0  0  0
M  END
> <DRUGBANK_ID>
DB08257

> <DRUG_GROUPS>
experimental

> <GENERIC_NAME>
4-{[(CYCLOHEXYLAMINO)CARBONYL]AMINO}BUTANOIC ACID

> <CHEMICAL_FORMULA>
C11H20N2O3

> <MOLECULAR_WEIGHT>
228.2881

> <EXACT_MASS>
228.147392516

> <IUPAC_NAME>
4-[(cyclohexylcarbamoyl)amino]butanoic acid

> <IUPAC_TRADITIONAL_NAME>
4-[(cyclohexylcarbamoyl)amino]butanoic acid

> <INCHI_IDENTIFIER>
InChI=1S/C11H20N2O3/c14-10(15)7-4-8-12-11(16)13-9-5-2-1-3-6-9/h9H,1-8H2,(H,14,15)(H2,12,13,16)

> <INCHI_KEY>
InChIKey=WSVFRGGLURJIMG-UHFFFAOYSA-N

> <SMILES>
OC(=O)CCCNC(=O)NC1CCCCC1

> <JCHEM_ACCEPTOR_COUNT>
3

> <JCHEM_DONOR_COUNT>
3

> <JCHEM_ACIDIC_PKA>
4.32

> <JCHEM_BASIC_PKA>
-0.62

> <JCHEM_PHYSIOLOGICAL_CHARGE>
-1

> <ALOGPS_LOGP>
1.18

> <JCHEM_LOGP>
0.89

> <ALOGPS_LOGS>
-2.5

> <JCHEM_POLARIZABILITY>
25.24

> <JCHEM_POLAR_SURFACE_AREA>
78.43

> <JCHEM_REFRACTIVITY>
59.49

> <JCHEM_ROTATABLE_BOND_COUNT>
5

> <ALOGPS_SOLUBILITY>
8.09e-01 g/l __ 

$$$$
