ZZ1
  Mrv0541 02241214192D          

 12 13  0  0  0  0            999 V2000
   -2.2519    1.4353    0.0000 O   0  0  0  0  0  0  0  0  0  0  0  0
   -1.5374    1.0228    0.0000 C   0  0  0  0  0  0  0  0  0  0  0  0
   -0.8230    1.4353    0.0000 O   0  0  0  0  0  0  0  0  0  0  0  0
   -0.1085    1.0228    0.0000 C   0  0  0  0  0  0  0  0  0  0  0  0
    0.6060    1.4353    0.0000 C   0  0  0  0  0  0  0  0  0  0  0  0
    1.3205    1.0228    0.0000 C   0  0  0  0  0  0  0  0  0  0  0  0
    1.3205    0.1978    0.0000 C   0  0  0  0  0  0  0  0  0  0  0  0
    0.6060   -0.2147    0.0000 C   0  0  0  0  0  0  0  0  0  0  0  0
   -0.1085    0.1978    0.0000 C   0  0  0  0  0  0  0  0  0  0  0  0
   -0.8230   -0.2147    0.0000 C   0  0  0  0  0  0  0  0  0  0  0  0
   -0.8230   -1.0397    0.0000 C   0  0  0  0  0  0  0  0  0  0  0  0
   -1.5374    0.1978    0.0000 C   0  0  0  0  0  0  0  0  0  0  0  0
  1  2  2  0  0  0  0
  2  3  1  0  0  0  0
  2 12  1  0  0  0  0
  3  4  1  0  0  0  0
  4  5  2  0  0  0  0
  4  9  1  0  0  0  0
  5  6  1  0  0  0  0
  6  7  2  0  0  0  0
  7  8  1  0  0  0  0
  8  9  2  0  0  0  0
  9 10  1  0  0  0  0
 10 11  1  0  0  0  0
 10 12  2  0  0  0  0
M  END
> <DRUGBANK_ID>
DB08785

> <DRUG_GROUPS>
experimental

> <GENERIC_NAME>
4-METHYL-2H-CHROMEN-2-ONE

> <CHEMICAL_FORMULA>
C10H8O2

> <MOLECULAR_WEIGHT>
160.1693

> <EXACT_MASS>
160.0524295

> <IUPAC_NAME>
4-methyl-2H-chromen-2-one

> <IUPAC_TRADITIONAL_NAME>
4-methylcoumarin

> <INCHI_IDENTIFIER>
InChI=1S/C10H8O2/c1-7-6-10(11)12-9-5-3-2-4-8(7)9/h2-6H,1H3

> <INCHI_KEY>
InChIKey=PSGQCCSGKGJLRL-UHFFFAOYSA-N

> <SMILES>
CC1=CC(=O)OC2=CC=CC=C12

> <JCHEM_ACCEPTOR_COUNT>
1

> <JCHEM_DONOR_COUNT>
0

> <JCHEM_BASIC_PKA>
-7

> <JCHEM_PHYSIOLOGICAL_CHARGE>
0

> <ALOGPS_LOGP>
2.05

> <JCHEM_LOGP>
2.08

> <ALOGPS_LOGS>
-2.7

> <JCHEM_POLARIZABILITY>
16.41

> <JCHEM_POLAR_SURFACE_AREA>
26.3

> <JCHEM_REFRACTIVITY>
45.83

> <JCHEM_ROTATABLE_BOND_COUNT>
0

> <ALOGPS_SOLUBILITY>
3.11e-01 g/l __ 

$$$$
