VRX
  Mrv0541 02241214162D          

 27 29  0  0  0  0            999 V2000
   -1.0896    3.4780    0.0000 C   0  0  0  0  0  0  0  0  0  0  0  0
   -1.0896    4.3030    0.0000 C   0  0  0  0  0  0  0  0  0  0  0  0
   -0.3751    4.7155    0.0000 C   0  0  0  0  0  0  0  0  0  0  0  0
    0.3394    4.3030    0.0000 C   0  0  0  0  0  0  0  0  0  0  0  0
    0.3394    3.4780    0.0000 C   0  0  0  0  0  0  0  0  0  0  0  0
   -0.3751    3.0655    0.0000 C   0  0  0  0  0  0  0  0  0  0  0  0
   -0.3751    5.5405    0.0000 F   0  0  0  0  0  0  0  0  0  0  0  0
   -0.3751    2.2405    0.0000 C   0  0  1  0  0  0  0  0  0  0  0  0
   -1.0896    1.8280    0.0000 C   0  0  0  0  0  0  0  0  0  0  0  0
   -1.0896    1.0030    0.0000 O   0  0  0  0  0  0  0  0  0  0  0  0
   -1.8041    2.2405    0.0000 O   0  0  0  0  0  0  0  0  0  0  0  0
    0.3394    1.8280    0.0000 N   0  0  0  0  0  0  0  0  0  0  0  0
    0.3394    1.0030    0.0000 C   0  0  0  0  0  0  0  0  0  0  0  0
    1.0068    0.5181    0.0000 S   0  0  0  0  0  0  0  0  0  0  0  0
    0.7519   -0.2666    0.0000 C   0  0  0  0  0  0  0  0  0  0  0  0
   -0.0731   -0.2666    0.0000 C   0  0  0  0  0  0  0  0  0  0  0  0
   -0.3281    0.5181    0.0000 N   0  0  0  0  0  0  0  0  0  0  0  0
   -0.5581   -0.9340    0.0000 O   0  0  0  0  0  0  0  0  0  0  0  0
    1.2368   -0.9340    0.0000 C   0  0  0  0  0  0  0  0  0  0  0  0
    2.0573   -0.8478    0.0000 C   0  0  0  0  0  0  0  0  0  0  0  0
    2.4698   -0.1333    0.0000 C   0  0  0  0  0  0  0  0  0  0  0  0
    3.2767   -0.3048    0.0000 C   0  0  0  0  0  0  0  0  0  0  0  0
    3.3630   -1.1253    0.0000 C   0  0  0  0  0  0  0  0  0  0  0  0
    2.6093   -1.4609    0.0000 O   0  0  0  0  0  0  0  0  0  0  0  0
    4.0774   -1.5378    0.0000 C   0  0  0  0  0  0  0  0  0  0  0  0
    4.7919   -1.1253    0.0000 C   0  0  0  0  0  0  0  0  0  0  0  0
    0.1306    2.5324    0.0000 H   0  0  0  0  0  0  0  0  0  0  0  0
  1  2  2  0  0  0  0
  1  6  1  0  0  0  0
  2  3  1  0  0  0  0
  3  4  2  0  0  0  0
  3  7  1  0  0  0  0
  4  5  1  0  0  0  0
  5  6  2  0  0  0  0
  6  8  1  0  0  0  0
  8 12  1  6  0  0  0
  8  9  1  0  0  0  0
  8 27  1  1  0  0  0
  9 10  2  0  0  0  0
  9 11  1  0  0  0  0
 12 13  1  0  0  0  0
 13 14  1  0  0  0  0
 13 17  2  0  0  0  0
 14 15  1  0  0  0  0
 15 19  2  0  0  0  0
 15 16  1  0  0  0  0
 16 17  1  0  0  0  0
 16 18  2  0  0  0  0
 19 20  1  0  0  0  0
 20 21  2  0  0  0  0
 20 24  1  0  0  0  0
 21 22  1  0  0  0  0
 22 23  2  0  0  0  0
 23 25  1  0  0  0  0
 23 24  1  0  0  0  0
 25 26  1  0  0  0  0
M  END
> <DRUGBANK_ID>
DB08706

> <DRUG_GROUPS>
experimental

> <GENERIC_NAME>
(2S)-({(5Z)-5-[(5-ETHYL-2-FURYL)METHYLENE]-4-OXO-4,5-DIHYDRO-1,3-THIAZOL-2-YL}AMINO)(4-FLUOROPHENYL)ACETIC ACID

> <CHEMICAL_FORMULA>
C18H15FN2O4S

> <MOLECULAR_WEIGHT>
374.386

> <EXACT_MASS>
374.073655873

> <IUPAC_NAME>
(2S)-2-{[(5Z)-5-[(5-ethylfuran-2-yl)methylidene]-4-oxo-4,5-dihydro-1,3-thiazol-2-yl]amino}-2-(4-fluorophenyl)acetic acid

> <IUPAC_TRADITIONAL_NAME>
(S)-{[(5Z)-5-[(5-ethylfuran-2-yl)methylidene]-4-oxo-1,3-thiazol-2-yl]amino}(4-fluorophenyl)acetic acid

> <INCHI_IDENTIFIER>
InChI=1S/C18H15FN2O4S/c1-2-12-7-8-13(25-12)9-14-16(22)21-18(26-14)20-15(17(23)24)10-3-5-11(19)6-4-10/h3-9,15H,2H2,1H3,(H,23,24)(H,20,21,22)/b14-9-/t15-/m0/s1

> <INCHI_KEY>
InChIKey=RNEACARJKXYVND-MZLJFPOFSA-N

> <SMILES>
[H][C@@](NC1=NC(=O)\C(S1)=C\C1=CC=C(CC)O1)(C(O)=O)C1=CC=C(F)C=C1

> <JCHEM_ACCEPTOR_COUNT>
5

> <JCHEM_DONOR_COUNT>
2

> <JCHEM_ACIDIC_PKA>
3.88

> <JCHEM_BASIC_PKA>
-0.59

> <JCHEM_PHYSIOLOGICAL_CHARGE>
-1

> <ALOGPS_LOGP>
2.76

> <JCHEM_LOGP>
3.08

> <ALOGPS_LOGS>
-4

> <JCHEM_POLARIZABILITY>
36.65

> <JCHEM_POLAR_SURFACE_AREA>
91.9

> <JCHEM_REFRACTIVITY>
95.7

> <JCHEM_ROTATABLE_BOND_COUNT>
5

> <ALOGPS_SOLUBILITY>
3.49e-02 g/l __ 

$$$$
