
  Mrv0541 01041412102D          

 36 38  0  0  0  0            999 V2000
   -4.8437   -0.7366    0.0000 C   0  0  0  0  0  0  0  0  0  0  0  0
   -4.2306   -1.2886    0.0000 C   0  0  0  0  0  0  0  0  0  0  0  0
   -3.5632   -0.8037    0.0000 O   0  0  0  0  0  0  0  0  0  0  0  0
   -2.8957   -1.2886    0.0000 C   0  0  0  0  0  0  0  0  0  0  0  0
   -2.1813   -0.8761    0.0000 C   0  0  1  0  0  0  0  0  0  0  0  0
   -1.4668   -1.2886    0.0000 N   0  0  0  0  0  0  0  0  0  0  0  0
   -0.7993   -0.8037    0.0000 P   0  0  1  0  0  0  0  0  0  0  0  0
   -1.2852   -0.3119    0.0000 O   0  0  0  0  0  0  0  0  0  0  0  0
   -0.2473   -0.1906    0.0000 O   0  0  0  0  0  0  0  0  0  0  0  0
   -0.2466   -1.3178    0.0000 O   0  0  0  0  0  0  0  0  0  0  0  0
   -2.8943   -1.8669    0.0000 O   0  0  0  0  0  0  0  0  0  0  0  0
   -4.2291   -1.8446    0.0000 C   0  0  0  0  0  0  0  0  0  0  0  0
   -2.1813   -0.0511    0.0000 C   0  0  0  0  0  0  0  0  0  0  0  0
    0.3664   -0.7658    0.0000 C   0  0  0  0  0  0  0  0  0  0  0  0
    1.6470   -0.8329    0.0000 O   0  0  0  0  0  0  0  0  0  0  0  0
    0.9795   -1.3178    0.0000 C   0  0  0  0  0  0  0  0  0  0  0  0
    1.2345   -2.1024    0.0000 C   0  0  2  0  0  0  0  0  0  0  0  0
    2.0595   -2.1024    0.0000 C   0  0  1  0  0  0  0  0  0  0  0  0
    2.3144   -1.3178    0.0000 C   0  0  2  0  0  0  0  0  0  0  0  0
    2.5444   -2.7698    0.0000 C   0  0  0  0  0  0  0  0  0  0  0  0
    1.7239   -2.8561    0.0000 F   0  0  0  0  0  0  0  0  0  0  0  0
    0.7495   -2.7698    0.0000 O   0  0  0  0  0  0  0  0  0  0  0  0
    3.8135    0.1746    0.0000 N   0  0  0  0  0  0  0  0  0  0  0  0
    3.0990   -0.2378    0.0000 C   0  0  0  0  0  0  0  0  0  0  0  0
    3.0990   -1.0629    0.0000 N   0  0  0  0  0  0  0  0  0  0  0  0
    3.8135   -1.4754    0.0000 C   0  0  0  0  0  0  0  0  0  0  0  0
    4.5279   -1.0629    0.0000 C   0  0  0  0  0  0  0  0  0  0  0  0
    4.5279   -0.2378    0.0000 C   0  0  0  0  0  0  0  0  0  0  0  0
    2.3845    0.1745    0.0000 O   0  0  0  0  0  0  0  0  0  0  0  0
    5.2424    0.1745    0.0000 O   0  0  0  0  0  0  0  0  0  0  0  0
   -0.2473    2.0611    0.0000 C   0  0  0  0  0  0  0  0  0  0  0  0
   -0.9618    1.6486    0.0000 C   0  0  0  0  0  0  0  0  0  0  0  0
   -0.9618    0.8236    0.0000 C   0  0  0  0  0  0  0  0  0  0  0  0
   -0.2473    0.4111    0.0000 C   0  0  0  0  0  0  0  0  0  0  0  0
    0.4671    0.8236    0.0000 C   0  0  0  0  0  0  0  0  0  0  0  0
    0.4671    1.6486    0.0000 C   0  0  0  0  0  0  0  0  0  0  0  0
  1  2  1  0  0  0  0
  2  3  1  0  0  0  0
  3  4  1  0  0  0  0
  4  5  1  0  0  0  0
  5  6  1  0  0  0  0
  6  7  1  1  0  0  0
  7  8  2  0  0  0  0
  7  9  1  0  0  0  0
  7 10  1  6  0  0  0
  4 11  2  0  0  0  0
  2 12  1  0  0  0  0
  5 13  1  6  0  0  0
 10 14  1  0  0  0  0
 15 16  1  0  0  0  0
 15 19  1  0  0  0  0
 16 17  1  0  0  0  0
 17 18  1  0  0  0  0
 18 19  1  0  0  0  0
 14 16  1  1  0  0  0
 18 20  1  1  0  0  0
 18 21  1  6  0  0  0
 17 22  1  6  0  0  0
 23 24  1  0  0  0  0
 23 28  1  0  0  0  0
 24 25  1  0  0  0  0
 25 26  1  0  0  0  0
 26 27  2  0  0  0  0
 27 28  1  0  0  0  0
 19 25  1  1  0  0  0
 24 29  2  0  0  0  0
 28 30  2  0  0  0  0
 31 32  1  0  0  0  0
 31 36  2  0  0  0  0
 32 33  2  0  0  0  0
 33 34  1  0  0  0  0
 34 35  2  0  0  0  0
 35 36  1  0  0  0  0
  9 34  1  0  0  0  0
M  END
> <DRUGBANK_ID>
DB08934

> <DRUG_GROUPS>
approved

> <GENERIC_NAME>
SOFOSBUVIR

> <SYNONYMS>
GS-7977; PSI-7977

> <BRANDS>
SOVALDI

> <CHEMICAL_FORMULA>
C22H29FN3O9P

> <MOLECULAR_WEIGHT>
529.4525

> <EXACT_MASS>
529.162544258

> <IUPAC_NAME>
propan-2-yl (2S)-2-{[(S)-{[(3R,4R,5R)-5-(2,4-dioxo-1,2,3,4-tetrahydropyrimidin-1-yl)-4-fluoro-3-hydroxy-4-methyloxolan-2-yl]methoxy}(phenoxy)phosphoryl]amino}propanoate

> <IUPAC_TRADITIONAL_NAME>
isopropyl (2S)-2-{[(S)-[(3R,4R,5R)-5-(2,4-dioxo-3H-pyrimidin-1-yl)-4-fluoro-3-hydroxy-4-methyloxolan-2-yl]methoxy(phenoxy)phosphoryl]amino}propanoate

> <INCHI_IDENTIFIER>
InChI=1/C22H29FN3O9P/c1-13(2)33-19(29)14(3)25-36(31,35-15-8-6-5-7-9-15)32-12-16-18(28)22(4,23)20(34-16)26-11-10-17(27)24-21(26)30/h5-11,13-14,16,18,20,28H,12H2,1-4H3,(H,25,31)(H,24,27,30)/t14-,16?,18+,20+,22+,36-/s2

> <INCHI_KEY>
InChIKey=TTZHDVOVKQGIBA-YUFAQMEMNA-N

> <SMILES>
CC(C)OC(=O)[C@H](C)N[P@](=O)(OCC1O[C@@H](N2C=CC(=O)NC2=O)[C@](C)(F)[C@@H]1O)OC1=CC=CC=C1

> <JCHEM_ACCEPTOR_COUNT>
6

> <JCHEM_DONOR_COUNT>
3

> <JCHEM_ACIDIC_PKA>
9.38

> <JCHEM_BASIC_PKA>
-3.9

> <JCHEM_PHYSIOLOGICAL_CHARGE>
0

> <ALOGPS_LOGP>
1.63

> <JCHEM_LOGP>
1.28

> <ALOGPS_LOGS>
-2.8

> <JCHEM_POLARIZABILITY>
49.89

> <JCHEM_POLAR_SURFACE_AREA>
152.73

> <JCHEM_REFRACTIVITY>
121.59

> <JCHEM_ROTATABLE_BOND_COUNT>
11

> <ALOGPS_SOLUBILITY>
8.24e-01 g/l __ 

$$$$
