SC9
  Mrv0541 02241214092D          

 24 27  0  0  0  0            999 V2000
   -1.6218    1.4825    0.0000 C   0  0  0  0  0  0  0  0  0  0  0  0
   -0.8372    1.2276    0.0000 N   0  0  0  0  0  0  0  0  0  0  0  0
   -0.8372    0.4026    0.0000 C   0  0  0  0  0  0  0  0  0  0  0  0
   -1.6218    0.1477    0.0000 N   0  0  0  0  0  0  0  0  0  0  0  0
   -2.1067    0.8151    0.0000 C   0  0  0  0  0  0  0  0  0  0  0  0
   -0.1227    1.6401    0.0000 C   0  0  0  0  0  0  0  0  0  0  0  0
    0.5918    1.2276    0.0000 C   0  0  0  0  0  0  0  0  0  0  0  0
    0.5918    0.4026    0.0000 N   0  0  0  0  0  0  0  0  0  0  0  0
   -0.1227   -0.0099    0.0000 C   0  0  0  0  0  0  0  0  0  0  0  0
   -0.1227   -0.8349    0.0000 N   0  0  0  0  0  0  0  0  0  0  0  0
   -0.8372   -1.2474    0.0000 C   0  0  0  0  0  0  0  0  0  0  0  0
   -0.8372   -2.0724    0.0000 C   0  0  0  0  0  0  0  0  0  0  0  0
   -1.5516   -2.4849    0.0000 C   0  0  0  0  0  0  0  0  0  0  0  0
   -1.5516   -3.3099    0.0000 C   0  0  0  0  0  0  0  0  0  0  0  0
   -0.8372   -3.7224    0.0000 C   0  0  0  0  0  0  0  0  0  0  0  0
   -0.1227   -3.3099    0.0000 N   0  0  0  0  0  0  0  0  0  0  0  0
   -0.1227   -2.4849    0.0000 C   0  0  0  0  0  0  0  0  0  0  0  0
    1.3063    1.6401    0.0000 C   0  0  0  0  0  0  0  0  0  0  0  0
    2.0207    1.2276    0.0000 C   0  0  0  0  0  0  0  0  0  0  0  0
    2.7352    1.6401    0.0000 C   0  0  0  0  0  0  0  0  0  0  0  0
    2.7352    2.4651    0.0000 C   0  0  0  0  0  0  0  0  0  0  0  0
    2.0207    2.8776    0.0000 C   0  0  0  0  0  0  0  0  0  0  0  0
    1.3063    2.4651    0.0000 C   0  0  0  0  0  0  0  0  0  0  0  0
    2.0207    0.4026    0.0000 F   0  0  0  0  0  0  0  0  0  0  0  0
  1  5  2  0  0  0  0
  1  2  1  0  0  0  0
  2  6  1  0  0  0  0
  2  3  1  0  0  0  0
  3  9  1  0  0  0  0
  4  3  2  0  0  0  0
  5  4  1  0  0  0  0
  6  7  2  0  0  0  0
  7 18  1  0  0  0  0
  7  8  1  0  0  0  0
  9  8  2  0  0  0  0
  9 10  1  0  0  0  0
 10 11  1  0  0  0  0
 12 11  1  0  0  0  0
 13 12  2  0  0  0  0
 14 13  1  0  0  0  0
 15 14  2  0  0  0  0
 15 16  1  0  0  0  0
 16 17  2  0  0  0  0
 17 12  1  0  0  0  0
 18 23  2  0  0  0  0
 19 20  2  0  0  0  0
 19 18  1  0  0  0  0
 20 21  1  0  0  0  0
 21 22  2  0  0  0  0
 23 22  1  0  0  0  0
 24 19  1  0  0  0  0
M  END
> <DRUGBANK_ID>
DB08532

> <DRUG_GROUPS>
experimental

> <GENERIC_NAME>
6-(2-fluorophenyl)-N-(pyridin-3-ylmethyl)imidazo[1,2-a]pyrazin-8-amine

> <CHEMICAL_FORMULA>
C18H14FN5

> <MOLECULAR_WEIGHT>
319.3357

> <EXACT_MASS>
319.123323678

> <IUPAC_NAME>
6-(2-fluorophenyl)-N-(pyridin-3-ylmethyl)imidazo[1,2-a]pyrazin-8-amine

> <IUPAC_TRADITIONAL_NAME>
6-(2-fluorophenyl)-N-(pyridin-3-ylmethyl)imidazo[1,2-a]pyrazin-8-amine

> <INCHI_IDENTIFIER>
InChI=1S/C18H14FN5/c19-15-6-2-1-5-14(15)16-12-24-9-8-21-18(24)17(23-16)22-11-13-4-3-7-20-10-13/h1-10,12H,11H2,(H,22,23)

> <INCHI_KEY>
InChIKey=WCNPGRRMPFCHEO-UHFFFAOYSA-N

> <SMILES>
FC1=CC=CC=C1C1=CN2C=CN=C2C(NCC2=CC=CN=C2)=N1

> <JCHEM_ACCEPTOR_COUNT>
4

> <JCHEM_DONOR_COUNT>
1

> <JCHEM_ACIDIC_PKA>
15.74

> <JCHEM_BASIC_PKA>
4.89

> <JCHEM_PHYSIOLOGICAL_CHARGE>
0

> <ALOGPS_LOGP>
3.18

> <JCHEM_LOGP>
2.29

> <ALOGPS_LOGS>
-4.2

> <JCHEM_POLARIZABILITY>
33.2

> <JCHEM_POLAR_SURFACE_AREA>
55.11

> <JCHEM_REFRACTIVITY>
91.72

> <JCHEM_ROTATABLE_BOND_COUNT>
4

> <ALOGPS_SOLUBILITY>
1.78e-02 g/l __ 

$$$$
