PHX
  Mrv0541 02241214042D          

 20 21  0  0  0  0            999 V2000
   -3.8006    1.6745    0.0000 C   0  0  0  0  0  0  0  0  0  0  0  0
   -3.8006    2.4995    0.0000 C   0  0  0  0  0  0  0  0  0  0  0  0
   -3.0861    2.9120    0.0000 C   0  0  0  0  0  0  0  0  0  0  0  0
   -2.3717    2.4995    0.0000 C   0  0  0  0  0  0  0  0  0  0  0  0
   -2.3717    1.6745    0.0000 C   0  0  0  0  0  0  0  0  0  0  0  0
   -3.0861    1.2620    0.0000 C   0  0  0  0  0  0  0  0  0  0  0  0
   -3.0861    0.4370    0.0000 C   0  0  0  0  0  0  0  0  0  0  0  0
   -2.4187   -0.0479    0.0000 N   0  0  0  0  0  0  0  0  0  0  0  0
   -3.7536   -0.0479    0.0000 O   0  0  0  0  0  0  0  0  0  0  0  0
   -3.4986   -0.8326    0.0000 C   0  0  0  0  0  0  0  0  0  0  0  0
   -3.9836   -1.5000    0.0000 O   0  0  0  0  0  0  0  0  0  0  0  0
   -2.6736   -0.8326    0.0000 C   0  0  0  0  0  0  0  0  0  0  0  0
   -2.1887   -1.5000    0.0000 C   0  0  0  0  0  0  0  0  0  0  0  0
   -1.3682   -1.4138    0.0000 N   0  0  0  0  0  0  0  0  0  0  0  0
   -0.8833   -2.0812    0.0000 C   0  0  0  0  0  0  0  0  0  0  0  0
   -0.0628   -1.9950    0.0000 C   0  0  0  0  0  0  0  0  0  0  0  0
    0.4221   -2.6624    0.0000 C   0  0  0  0  0  0  0  0  0  0  0  0
    1.2426   -2.5762    0.0000 C   0  0  0  0  0  0  0  0  0  0  0  0
    1.5781   -1.8225    0.0000 O   0  0  0  0  0  0  0  0  0  0  0  0
    1.7275   -3.2436    0.0000 O   0  0  0  0  0  0  0  0  0  0  0  0
  1  2  2  0  0  0  0
  1  6  1  0  0  0  0
  2  3  1  0  0  0  0
  3  4  2  0  0  0  0
  4  5  1  0  0  0  0
  5  6  2  0  0  0  0
  6  7  1  0  0  0  0
  7  8  2  0  0  0  0
  7  9  1  0  0  0  0
  8 12  1  0  0  0  0
  9 10  1  0  0  0  0
 10 11  2  0  0  0  0
 10 12  1  0  0  0  0
 12 13  2  0  0  0  0
 13 14  1  0  0  0  0
 14 15  1  0  0  0  0
 15 16  1  0  0  0  0
 16 17  2  0  0  0  0
 17 18  1  0  0  0  0
 18 19  2  0  0  0  0
 18 20  1  0  0  0  0
M  END
> <DRUGBANK_ID>
DB08396

> <DRUG_GROUPS>
experimental

> <GENERIC_NAME>
4-{[(Z)-(5-OXO-2-PHENYL-1,3-OXAZOL-4(5H)-YLIDENE)METHYL]AMINO}BUTANOIC ACID

> <CHEMICAL_FORMULA>
C14H12N2O4

> <MOLECULAR_WEIGHT>
272.2561

> <EXACT_MASS>
272.079706882

> <IUPAC_NAME>
(2E)-4-({[(4Z)-5-oxo-2-phenyl-4,5-dihydro-1,3-oxazol-4-ylidene]methyl}amino)but-2-enoic acid

> <IUPAC_TRADITIONAL_NAME>
(2E)-4-({[(4Z)-5-oxo-2-phenyl-1,3-oxazol-4-ylidene]methyl}amino)but-2-enoic acid

> <INCHI_IDENTIFIER>
InChI=1S/C14H12N2O4/c17-12(18)7-4-8-15-9-11-14(19)20-13(16-11)10-5-2-1-3-6-10/h1-7,9,15H,8H2,(H,17,18)/b7-4+,11-9-

> <INCHI_KEY>
InChIKey=NWPKPRWNDVEPNY-DHIFYFQBSA-N

> <SMILES>
OC(=O)\C=C\CN\C=C1/N=C(OC1=O)C1=CC=CC=C1

> <JCHEM_ACCEPTOR_COUNT>
5

> <JCHEM_DONOR_COUNT>
2

> <JCHEM_ACIDIC_PKA>
3.99

> <JCHEM_BASIC_PKA>
1.16

> <JCHEM_PHYSIOLOGICAL_CHARGE>
-1

> <ALOGPS_LOGP>
1.42

> <JCHEM_LOGP>
1.6

> <ALOGPS_LOGS>
-3.4

> <JCHEM_POLARIZABILITY>
27.64

> <JCHEM_POLAR_SURFACE_AREA>
87.99

> <JCHEM_REFRACTIVITY>
72.95

> <JCHEM_ROTATABLE_BOND_COUNT>
5

> <ALOGPS_SOLUBILITY>
1.13e-01 g/l __ 

$$$$
