M28
  Mrv0541 02241213542D          

 15 15  0  0  0  0            999 V2000
    1.8752    0.0156    0.0000 C   0  0  0  0  0  0  0  0  0  0  0  0
    1.8752   -0.8094    0.0000 C   0  0  0  0  0  0  0  0  0  0  0  0
    1.1607   -1.2219    0.0000 C   0  0  0  0  0  0  0  0  0  0  0  0
    0.4463   -0.8094    0.0000 C   0  0  0  0  0  0  0  0  0  0  0  0
    0.4463    0.0156    0.0000 C   0  0  0  0  0  0  0  0  0  0  0  0
    1.1607    0.4281    0.0000 C   0  0  0  0  0  0  0  0  0  0  0  0
    2.5897    0.4281    0.0000 S   0  0  0  0  0  0  0  0  0  0  0  0
    3.3042    0.8406    0.0000 O   0  0  0  0  0  0  0  0  0  0  0  0
    2.1772    1.1425    0.0000 O   0  0  0  0  0  0  0  0  0  0  0  0
    3.0022   -0.2864    0.0000 N   0  0  0  0  0  0  0  0  0  0  0  0
   -0.2682   -1.2219    0.0000 C   0  0  0  0  0  0  0  0  0  0  0  0
   -0.2682   -2.0469    0.0000 C   0  0  0  0  0  0  0  0  0  0  0  0
   -0.9827   -2.4594    0.0000 C   0  0  0  0  0  0  0  0  0  0  0  0
   -0.9827   -3.2844    0.0000 O   0  0  0  0  0  0  0  0  0  0  0  0
   -1.6971   -2.0469    0.0000 O   0  0  0  0  0  0  0  0  0  0  0  0
  1  7  1  0  0  0  0
  1  2  2  0  0  0  0
  1  6  1  0  0  0  0
  2  3  1  0  0  0  0
  3  4  2  0  0  0  0
  4  5  1  0  0  0  0
  4 11  1  0  0  0  0
  5  6  2  0  0  0  0
  7  8  2  0  0  0  0
  7  9  2  0  0  0  0
  7 10  1  0  0  0  0
 11 12  1  0  0  0  0
 12 13  1  0  0  0  0
 13 14  2  0  0  0  0
 13 15  1  0  0  0  0
M  END
> <DRUGBANK_ID>
DB08156

> <DRUG_GROUPS>
experimental

> <GENERIC_NAME>
3-[4-(AMINOSULFONYL)PHENYL]PROPANOIC ACID

> <CHEMICAL_FORMULA>
C9H11NO4S

> <MOLECULAR_WEIGHT>
229.253

> <EXACT_MASS>
229.040878535

> <IUPAC_NAME>
3-(4-sulfamoylphenyl)propanoic acid

> <IUPAC_TRADITIONAL_NAME>
3-(4-sulfamoylphenyl)propanoic acid

> <INCHI_IDENTIFIER>
InChI=1S/C9H11NO4S/c10-15(13,14)8-4-1-7(2-5-8)3-6-9(11)12/h1-2,4-5H,3,6H2,(H,11,12)(H2,10,13,14)

> <INCHI_KEY>
InChIKey=JUEONDBIBADVGD-UHFFFAOYSA-N

> <SMILES>
NS(=O)(=O)C1=CC=C(CCC(O)=O)C=C1

> <JCHEM_ACCEPTOR_COUNT>
4

> <JCHEM_DONOR_COUNT>
2

> <JCHEM_ACIDIC_PKA>
3.43

> <JCHEM_PHYSIOLOGICAL_CHARGE>
-1

> <ALOGPS_LOGP>
0.61

> <JCHEM_LOGP>
0.66

> <ALOGPS_LOGS>
-2

> <JCHEM_POLARIZABILITY>
22

> <JCHEM_POLAR_SURFACE_AREA>
97.46

> <JCHEM_REFRACTIVITY>
54.12

> <JCHEM_ROTATABLE_BOND_COUNT>
4

> <ALOGPS_SOLUBILITY>
2.46e+00 g/l __ 

$$$$
