W8R
  Mrv0541 02241214172D          

 27 29  0  0  0  0            999 V2000
   -5.2872    0.1575    0.0000 O   0  0  0  0  0  0  0  0  0  0  0  0
   -5.8392    0.7706    0.0000 N   0  0  0  0  0  0  0  0  0  0  0  0
   -5.4267    1.4851    0.0000 C   0  0  0  0  0  0  0  0  0  0  0  0
   -5.7623    2.2387    0.0000 C   0  0  0  0  0  0  0  0  0  0  0  0
   -4.6197    1.3135    0.0000 C   0  0  0  0  0  0  0  0  0  0  0  0
   -4.5335    0.4930    0.0000 C   0  0  0  0  0  0  0  0  0  0  0  0
   -3.8190    0.0805    0.0000 C   0  0  0  0  0  0  0  0  0  0  0  0
   -3.1046    0.4930    0.0000 C   0  0  0  0  0  0  0  0  0  0  0  0
   -2.3901    0.0805    0.0000 C   0  0  0  0  0  0  0  0  0  0  0  0
   -1.6756    0.4930    0.0000 C   0  0  0  0  0  0  0  0  0  0  0  0
   -0.9611    0.0805    0.0000 C   0  0  0  0  0  0  0  0  0  0  0  0
   -0.2467    0.4930    0.0000 C   0  0  0  0  0  0  0  0  0  0  0  0
    0.4678    0.0805    0.0000 C   0  0  0  0  0  0  0  0  0  0  0  0
    1.1823    0.4930    0.0000 O   0  0  0  0  0  0  0  0  0  0  0  0
    1.8967    0.0805    0.0000 C   0  0  0  0  0  0  0  0  0  0  0  0
    2.6112    0.4930    0.0000 C   0  0  0  0  0  0  0  0  0  0  0  0
    3.3257    0.0805    0.0000 C   0  0  0  0  0  0  0  0  0  0  0  0
    3.3257   -0.7445    0.0000 C   0  0  0  0  0  0  0  0  0  0  0  0
    2.6112   -1.1570    0.0000 C   0  0  0  0  0  0  0  0  0  0  0  0
    1.8967   -0.7445    0.0000 C   0  0  0  0  0  0  0  0  0  0  0  0
    4.0402   -1.1570    0.0000 C   0  0  0  0  0  0  0  0  0  0  0  0
    4.7938   -0.8214    0.0000 N   0  0  0  0  0  0  0  0  0  0  0  0
    5.3459   -1.4345    0.0000 C   0  0  2  0  0  0  0  0  0  0  0  0
    6.1663   -1.3483    0.0000 C   0  0  0  0  0  0  0  0  0  0  0  0
    4.9334   -2.1490    0.0000 C   0  0  0  0  0  0  0  0  0  0  0  0
    4.1264   -1.9774    0.0000 O   0  0  0  0  0  0  0  0  0  0  0  0
    5.5551   -0.8893    0.0000 H   0  0  0  0  0  0  0  0  0  0  0  0
  1  2  1  0  0  0  0
  1  6  1  0  0  0  0
  2  3  2  0  0  0  0
  3  4  1  0  0  0  0
  3  5  1  0  0  0  0
  5  6  2  0  0  0  0
  6  7  1  0  0  0  0
  7  8  1  0  0  0  0
  8  9  1  0  0  0  0
  9 10  1  0  0  0  0
 10 11  1  0  0  0  0
 11 12  1  0  0  0  0
 12 13  1  0  0  0  0
 13 14  1  0  0  0  0
 14 15  1  0  0  0  0
 15 16  2  0  0  0  0
 15 20  1  0  0  0  0
 16 17  1  0  0  0  0
 17 18  2  0  0  0  0
 18 19  1  0  0  0  0
 18 21  1  0  0  0  0
 19 20  2  0  0  0  0
 21 22  2  0  0  0  0
 21 26  1  0  0  0  0
 22 23  1  0  0  0  0
 23 24  1  6  0  0  0
 23 25  1  0  0  0  0
 23 27  1  1  0  0  0
 25 26  1  0  0  0  0
M  END
> <DRUGBANK_ID>
DB08727

> <DRUG_GROUPS>
experimental

> <GENERIC_NAME>
5-(7-(5-HYDRO-4-METHYL-2-OXAZOLYL)PHENOXY)HEPTYL)-3-METHYL ISOXAZOLE

> <CHEMICAL_FORMULA>
C21H28N2O3

> <MOLECULAR_WEIGHT>
356.4586

> <EXACT_MASS>
356.209992772

> <IUPAC_NAME>
3-methyl-5-(7-{4-[(4R)-4-methyl-4,5-dihydro-1,3-oxazol-2-yl]phenoxy}heptyl)-1,2-oxazole

> <IUPAC_TRADITIONAL_NAME>
3-methyl-5-(7-{4-[(4R)-4-methyl-4,5-dihydro-1,3-oxazol-2-yl]phenoxy}heptyl)-1,2-oxazole

> <INCHI_IDENTIFIER>
InChI=1S/C21H28N2O3/c1-16-14-20(26-23-16)8-6-4-3-5-7-13-24-19-11-9-18(10-12-19)21-22-17(2)15-25-21/h9-12,14,17H,3-8,13,15H2,1-2H3/t17-/m1/s1

> <INCHI_KEY>
InChIKey=NEAZMARKCJKUMF-QGZVFWFLSA-N

> <SMILES>
[H][C@@]1(C)COC(=N1)C1=CC=C(OCCCCCCCC2=CC(C)=NO2)C=C1

> <JCHEM_ACCEPTOR_COUNT>
3

> <JCHEM_DONOR_COUNT>
0

> <JCHEM_BASIC_PKA>
3.73

> <JCHEM_PHYSIOLOGICAL_CHARGE>
0

> <ALOGPS_LOGP>
5.15

> <JCHEM_LOGP>
4.56

> <ALOGPS_LOGS>
-4.6

> <JCHEM_POLARIZABILITY>
42.67

> <JCHEM_POLAR_SURFACE_AREA>
56.85

> <JCHEM_REFRACTIVITY>
102.66

> <JCHEM_ROTATABLE_BOND_COUNT>
10

> <ALOGPS_SOLUBILITY>
9.85e-03 g/l __ 

$$$$
