L15
  Mrv0541 02241213502D          

 15 16  0  0  0  0            999 V2000
    2.8670   -0.2453    0.0000 C   0  0  0  0  0  0  0  0  0  0  0  0
    2.8670   -1.0703    0.0000 C   0  0  0  0  0  0  0  0  0  0  0  0
    3.5345   -1.5552    0.0000 N   0  0  0  0  0  0  0  0  0  0  0  0
    3.2795   -2.3399    0.0000 N   0  0  0  0  0  0  0  0  0  0  0  0
    2.4545   -2.3399    0.0000 C   0  0  0  0  0  0  0  0  0  0  0  0
    2.1996   -1.5552    0.0000 C   0  0  0  0  0  0  0  0  0  0  0  0
    1.4150   -1.3003    0.0000 C   0  0  0  0  0  0  0  0  0  0  0  0
    0.8019   -1.8523    0.0000 C   0  0  0  0  0  0  0  0  0  0  0  0
    0.0173   -1.5974    0.0000 C   0  0  0  0  0  0  0  0  0  0  0  0
   -0.1543   -0.7904    0.0000 C   0  0  0  0  0  0  0  0  0  0  0  0
   -0.9389   -0.5355    0.0000 C   0  0  0  0  0  0  0  0  0  0  0  0
   -1.1104    0.2715    0.0000 C   0  0  0  0  0  0  0  0  0  0  0  0
   -1.8950    0.5264    0.0000 N   0  0  0  0  0  0  0  0  0  0  0  0
    0.4588   -0.2384    0.0000 C   0  0  0  0  0  0  0  0  0  0  0  0
    1.2435   -0.4933    0.0000 C   0  0  0  0  0  0  0  0  0  0  0  0
  1  2  1  0  0  0  0
  2  3  2  0  0  0  0
  2  6  1  0  0  0  0
  3  4  1  0  0  0  0
  4  5  1  0  0  0  0
  5  6  2  0  0  0  0
  6  7  1  0  0  0  0
  7  8  1  0  0  0  0
  7 15  2  0  0  0  0
  8  9  2  0  0  0  0
  9 10  1  0  0  0  0
 10 11  1  0  0  0  0
 10 14  2  0  0  0  0
 11 12  1  0  0  0  0
 12 13  1  0  0  0  0
 14 15  1  0  0  0  0
M  END
> <DRUGBANK_ID>
DB08070

> <DRUG_GROUPS>
experimental

> <GENERIC_NAME>
2-[4-(3-METHYL-1H-PYRAZOL-4-YL)PHENYL]ETHANAMINE

> <CHEMICAL_FORMULA>
C12H15N3

> <MOLECULAR_WEIGHT>
201.2676

> <EXACT_MASS>
201.126597495

> <IUPAC_NAME>
2-[4-(3-methyl-1H-pyrazol-4-yl)phenyl]ethan-1-amine

> <IUPAC_TRADITIONAL_NAME>
2-[4-(3-methyl-1H-pyrazol-4-yl)phenyl]ethanamine

> <INCHI_IDENTIFIER>
InChI=1S/C12H15N3/c1-9-12(8-14-15-9)11-4-2-10(3-5-11)6-7-13/h2-5,8H,6-7,13H2,1H3,(H,14,15)

> <INCHI_KEY>
InChIKey=ILTOXASLQDKYJW-UHFFFAOYSA-N

> <SMILES>
CC1=NNC=C1C1=CC=C(CCN)C=C1

> <JCHEM_ACCEPTOR_COUNT>
2

> <JCHEM_DONOR_COUNT>
2

> <JCHEM_ACIDIC_PKA>
15.44

> <JCHEM_BASIC_PKA>
9.77

> <JCHEM_PHYSIOLOGICAL_CHARGE>
1

> <ALOGPS_LOGP>
1.88

> <JCHEM_LOGP>
1.47

> <ALOGPS_LOGS>
-2.1

> <JCHEM_POLARIZABILITY>
23.16

> <JCHEM_POLAR_SURFACE_AREA>
54.7

> <JCHEM_REFRACTIVITY>
62.7

> <JCHEM_ROTATABLE_BOND_COUNT>
3

> <ALOGPS_SOLUBILITY>
1.66e+00 g/l __ 

$$$$
