TPB
  Mrv0541 02241214132D          

 25 27  0  0  0  0            999 V2000
    1.5811   -0.5099    0.0000 C   0  0  0  0  0  0  0  0  0  0  0  0
    1.5811    0.3151    0.0000 N   0  0  0  0  0  0  0  0  0  0  0  0
    2.2956   -0.9224    0.0000 C   0  0  0  0  0  0  0  0  0  0  0  0
    3.0100   -0.5099    0.0000 C   0  0  0  0  0  0  0  0  0  0  0  0
    2.2956   -1.7474    0.0000 C   0  0  0  0  0  0  0  0  0  0  0  0
    1.5811   -2.1599    0.0000 C   0  0  0  0  0  0  0  0  0  0  0  0
    0.8666   -1.7474    0.0000 C   0  0  0  0  0  0  0  0  0  0  0  0
    0.8666   -0.9224    0.0000 C   0  0  0  0  0  0  0  0  0  0  0  0
    0.1522   -0.5099    0.0000 C   0  0  0  0  0  0  0  0  0  0  0  0
    0.8666    0.7276    0.0000 C   0  0  0  0  0  0  0  0  0  0  0  0
    0.1522    0.3151    0.0000 N   0  0  0  0  0  0  0  0  0  0  0  0
   -0.5623    0.7276    0.0000 C   0  0  0  0  0  0  0  0  0  0  0  0
   -1.2768    0.3151    0.0000 N   0  0  0  0  0  0  0  0  0  0  0  0
   -0.5623    1.5526    0.0000 N   0  0  0  0  0  0  0  0  0  0  0  0
    0.1522    1.9651    0.0000 C   0  0  0  0  0  0  0  0  0  0  0  0
    0.8666    1.5526    0.0000 C   0  0  0  0  0  0  0  0  0  0  0  0
   -1.9913    0.7276    0.0000 C   0  0  0  0  0  0  0  0  0  0  0  0
   -2.7057    0.3151    0.0000 C   0  0  0  0  0  0  0  0  0  0  0  0
   -3.4202    0.7276    0.0000 C   0  0  0  0  0  0  0  0  0  0  0  0
   -3.4202    1.5526    0.0000 C   0  0  0  0  0  0  0  0  0  0  0  0
   -2.7057    1.9651    0.0000 C   0  0  0  0  0  0  0  0  0  0  0  0
   -1.9913    1.5526    0.0000 C   0  0  0  0  0  0  0  0  0  0  0  0
   -4.1347    1.9651    0.0000 C   0  0  0  0  0  0  0  0  0  0  0  0
   -4.8491    2.3776    0.0000 N   0  0  0  0  0  0  0  0  0  0  0  0
    1.5811   -2.9849    0.0000 C   0  0  0  0  0  0  0  0  0  0  0  0
  1  2  1  0  0  0  0
  1  3  2  0  0  0  0
  1  8  1  0  0  0  0
  2 10  1  0  0  0  0
  3  4  1  0  0  0  0
  3  5  1  0  0  0  0
  5  6  2  0  0  0  0
  6  7  1  0  0  0  0
  6 25  1  0  0  0  0
  7  8  2  0  0  0  0
  8  9  1  0  0  0  0
 10 11  2  0  0  0  0
 10 16  1  0  0  0  0
 11 12  1  0  0  0  0
 12 13  1  0  0  0  0
 12 14  2  0  0  0  0
 13 17  1  0  0  0  0
 14 15  1  0  0  0  0
 15 16  2  0  0  0  0
 17 18  2  0  0  0  0
 17 22  1  0  0  0  0
 18 19  1  0  0  0  0
 19 20  2  0  0  0  0
 20 21  1  0  0  0  0
 20 23  1  0  0  0  0
 21 22  2  0  0  0  0
 23 24  3  0  0  0  0
M  END
> <DRUGBANK_ID>
DB08639

> <DRUG_GROUPS>
experimental

> <GENERIC_NAME>
4-[4-(2,4,6-TRIMETHYL-PHENYLAMINO)-PYRIMIDIN-2-YLAMINO]-BENZONITRILE

> <CHEMICAL_FORMULA>
C20H19N5

> <MOLECULAR_WEIGHT>
329.3984

> <EXACT_MASS>
329.164045633

> <IUPAC_NAME>
4-({4-[(2,4,6-trimethylphenyl)amino]pyrimidin-2-yl}amino)benzonitrile

> <IUPAC_TRADITIONAL_NAME>
4-({4-[(2,4,6-trimethylphenyl)amino]pyrimidin-2-yl}amino)benzonitrile

> <INCHI_IDENTIFIER>
InChI=1S/C20H19N5/c1-13-10-14(2)19(15(3)11-13)24-18-8-9-22-20(25-18)23-17-6-4-16(12-21)5-7-17/h4-11H,1-3H3,(H2,22,23,24,25)

> <INCHI_KEY>
InChIKey=ILAYIAGXTHKHNT-UHFFFAOYSA-N

> <SMILES>
CC1=CC(C)=C(NC2=NC(NC3=CC=C(C=C3)C#N)=NC=C2)C(C)=C1

> <JCHEM_ACCEPTOR_COUNT>
5

> <JCHEM_DONOR_COUNT>
2

> <JCHEM_ACIDIC_PKA>
12.93

> <JCHEM_BASIC_PKA>
5.16

> <JCHEM_PHYSIOLOGICAL_CHARGE>
0

> <ALOGPS_LOGP>
4.12

> <JCHEM_LOGP>
5.6

> <ALOGPS_LOGS>
-4.3

> <JCHEM_POLARIZABILITY>
37.16

> <JCHEM_POLAR_SURFACE_AREA>
73.63

> <JCHEM_REFRACTIVITY>
100.8

> <JCHEM_ROTATABLE_BOND_COUNT>
4

> <ALOGPS_SOLUBILITY>
1.70e-02 g/l __ 

$$$$
