MBT
  Mrv0541 02241213542D          

 20 22  0  0  0  0            999 V2000
    0.7145    0.8443    0.0000 C   0  0  0  0  0  0  0  0  0  0  0  0
    0.7145    0.0193    0.0000 C   0  0  0  0  0  0  0  0  0  0  0  0
    0.0000   -0.3932    0.0000 S   0  3  0  0  0  0  0  0  0  0  0  0
   -0.7145    0.0193    0.0000 C   0  0  0  0  0  0  0  0  0  0  0  0
   -0.7145    0.8443    0.0000 C   0  0  0  0  0  0  0  0  0  0  0  0
    0.0000    1.2568    0.0000 N   0  0  0  0  0  0  0  0  0  0  0  0
   -1.4290   -0.3932    0.0000 C   0  0  0  0  0  0  0  0  0  0  0  0
   -2.1434    0.0193    0.0000 C   0  0  0  0  0  0  0  0  0  0  0  0
   -2.1434    0.8443    0.0000 C   0  0  0  0  0  0  0  0  0  0  0  0
   -1.4290    1.2568    0.0000 C   0  0  0  0  0  0  0  0  0  0  0  0
    1.4289   -0.3932    0.0000 C   0  0  0  0  0  0  0  0  0  0  0  0
    2.1434    0.0193    0.0000 C   0  0  0  0  0  0  0  0  0  0  0  0
    2.1434    0.8443    0.0000 C   0  0  0  0  0  0  0  0  0  0  0  0
    1.4289    1.2568    0.0000 C   0  0  0  0  0  0  0  0  0  0  0  0
   -2.8579   -0.3932    0.0000 N   0  0  0  0  0  0  0  0  0  0  0  0
   -3.5724    0.0193    0.0000 C   0  0  0  0  0  0  0  0  0  0  0  0
   -2.8579   -1.2182    0.0000 C   0  0  0  0  0  0  0  0  0  0  0  0
    2.8579   -0.3932    0.0000 N   0  0  0  0  0  0  0  0  0  0  0  0
    3.5723    0.0193    0.0000 C   0  0  0  0  0  0  0  0  0  0  0  0
    2.8579   -1.2182    0.0000 C   0  0  0  0  0  0  0  0  0  0  0  0
  1 14  1  0  0  0  0
  1  6  2  0  0  0  0
  1  2  1  0  0  0  0
  2  3  2  0  0  0  0
  2 11  1  0  0  0  0
  3  4  1  0  0  0  0
  4  7  2  0  0  0  0
  4  5  1  0  0  0  0
  5  6  1  0  0  0  0
  5 10  2  0  0  0  0
  7  8  1  0  0  0  0
  8  9  2  0  0  0  0
  8 15  1  0  0  0  0
  9 10  1  0  0  0  0
 11 12  2  0  0  0  0
 12 18  1  0  0  0  0
 12 13  1  0  0  0  0
 13 14  2  0  0  0  0
 15 16  1  0  0  0  0
 15 17  1  0  0  0  0
 18 19  1  0  0  0  0
 18 20  1  0  0  0  0
M  END
> <DRUGBANK_ID>
DB08167

> <DRUG_GROUPS>
experimental

> <GENERIC_NAME>
3,7-BIS(DIMETHYLAMINO)PHENOTHIAZIN-5-IUM

> <CHEMICAL_FORMULA>
C16H18N3S

> <MOLECULAR_WEIGHT>
284.399

> <EXACT_MASS>
284.122143281

> <IUPAC_NAME>
3,7-bis(dimethylamino)-5$l^{4},10-phenothiazin-5-ylium

> <IUPAC_TRADITIONAL_NAME>
3,7-bis(dimethylamino)-5$l^{4},10-phenothiazin-5-ylium

> <INCHI_IDENTIFIER>
InChI=1S/C16H18N3S/c1-18(2)11-5-7-13-15(9-11)20-16-10-12(19(3)4)6-8-14(16)17-13/h5-10H,1-4H3/q+1

> <INCHI_KEY>
InChIKey=RBTBFTRPCNLSDE-UHFFFAOYSA-N

> <SMILES>
CN(C)C1=CC2=[S+]C3=CC(=CC=C3N=C2C=C1)N(C)C

> <JCHEM_ACCEPTOR_COUNT>
3

> <JCHEM_DONOR_COUNT>
0

> <JCHEM_BASIC_PKA>
2.44

> <JCHEM_PHYSIOLOGICAL_CHARGE>
1

> <ALOGPS_LOGP>
2.8

> <JCHEM_LOGP>
2.61

> <ALOGPS_LOGS>
-2.9

> <JCHEM_POLARIZABILITY>
33.11

> <JCHEM_POLAR_SURFACE_AREA>
19.37

> <JCHEM_REFRACTIVITY>
86.98

> <JCHEM_ROTATABLE_BOND_COUNT>
2

> <ALOGPS_SOLUBILITY>
3.76e-01 g/l __ 

$$$$
