JEN
  Mrv0541 02241213482D          

 21 23  0  0  0  0            999 V2000
   -0.7263    4.4727    0.0000 C   0  0  0  0  0  0  0  0  0  0  0  0
   -0.0118    4.0602    0.0000 O   0  0  0  0  0  0  0  0  0  0  0  0
   -0.0118    3.2352    0.0000 C   0  0  0  0  0  0  0  0  0  0  0  0
    0.7027    2.8227    0.0000 N   0  0  0  0  0  0  0  0  0  0  0  0
    0.7027    1.9977    0.0000 N   0  0  0  0  0  0  0  0  0  0  0  0
   -0.0118    1.5852    0.0000 C   0  0  0  0  0  0  0  0  0  0  0  0
   -0.7263    1.9977    0.0000 C   0  0  0  0  0  0  0  0  0  0  0  0
   -0.7263    2.8227    0.0000 C   0  0  0  0  0  0  0  0  0  0  0  0
   -0.0118    0.7602    0.0000 N   0  0  0  0  0  0  0  0  0  0  0  0
    0.7027    0.3477    0.0000 C   0  0  0  0  0  0  0  0  0  0  0  0
    0.7027   -0.4773    0.0000 C   0  0  0  0  0  0  0  0  0  0  0  0
   -0.0118   -0.8898    0.0000 N   0  0  0  0  0  0  0  0  0  0  0  0
   -0.7263   -0.4773    0.0000 C   0  0  0  0  0  0  0  0  0  0  0  0
   -0.7263    0.3477    0.0000 C   0  0  0  0  0  0  0  0  0  0  0  0
   -0.0118   -1.7148    0.0000 C   0  0  0  0  0  0  0  0  0  0  0  0
    0.7027   -2.1273    0.0000 C   0  0  0  0  0  0  0  0  0  0  0  0
    0.7027   -2.9523    0.0000 C   0  0  0  0  0  0  0  0  0  0  0  0
   -0.0118   -3.3648    0.0000 C   0  0  0  0  0  0  0  0  0  0  0  0
   -0.7263   -2.9523    0.0000 C   0  0  0  0  0  0  0  0  0  0  0  0
   -0.7263   -2.1273    0.0000 C   0  0  0  0  0  0  0  0  0  0  0  0
    1.4171   -3.3648    0.0000 C   0  0  0  0  0  0  0  0  0  0  0  0
  1  2  1  0  0  0  0
  2  3  1  0  0  0  0
  3  4  2  0  0  0  0
  3  8  1  0  0  0  0
  4  5  1  0  0  0  0
  5  6  2  0  0  0  0
  6  7  1  0  0  0  0
  6  9  1  0  0  0  0
  7  8  2  0  0  0  0
  9 10  1  0  0  0  0
  9 14  1  0  0  0  0
 10 11  1  0  0  0  0
 11 12  1  0  0  0  0
 12 13  1  0  0  0  0
 12 15  1  0  0  0  0
 13 14  1  0  0  0  0
 15 16  2  0  0  0  0
 15 20  1  0  0  0  0
 16 17  1  0  0  0  0
 17 18  2  0  0  0  0
 17 21  1  0  0  0  0
 18 19  1  0  0  0  0
 19 20  2  0  0  0  0
M  END
> <DRUGBANK_ID>
DB08017

> <DRUG_GROUPS>
experimental

> <GENERIC_NAME>
3-METHOXY-6-[4-(3-METHYLPHENYL)-1-PIPERAZINYL]PYRIDAZINE

> <CHEMICAL_FORMULA>
C16H20N4O

> <MOLECULAR_WEIGHT>
284.3562

> <EXACT_MASS>
284.163711282

> <IUPAC_NAME>
3-methoxy-6-[4-(3-methylphenyl)piperazin-1-yl]pyridazine

> <IUPAC_TRADITIONAL_NAME>
3-methoxy-6-[4-(3-methylphenyl)piperazin-1-yl]pyridazine

> <INCHI_IDENTIFIER>
InChI=1S/C16H20N4O/c1-13-4-3-5-14(12-13)19-8-10-20(11-9-19)15-6-7-16(21-2)18-17-15/h3-7,12H,8-11H2,1-2H3

> <INCHI_KEY>
InChIKey=DDOAUTHWSCUHQA-UHFFFAOYSA-N

> <SMILES>
COC1=NN=C(C=C1)N1CCN(CC1)C1=CC(C)=CC=C1

> <JCHEM_ACCEPTOR_COUNT>
5

> <JCHEM_DONOR_COUNT>
0

> <JCHEM_BASIC_PKA>
3.44

> <JCHEM_PHYSIOLOGICAL_CHARGE>
0

> <ALOGPS_LOGP>
2.91

> <JCHEM_LOGP>
3.17

> <ALOGPS_LOGS>
-2.8

> <JCHEM_POLARIZABILITY>
31.96

> <JCHEM_POLAR_SURFACE_AREA>
41.49

> <JCHEM_REFRACTIVITY>
86.87

> <JCHEM_ROTATABLE_BOND_COUNT>
3

> <ALOGPS_SOLUBILITY>
4.88e-01 g/l __ 

$$$$
