P16
  Mrv0541 02241214012D          

 29 32  0  0  0  0            999 V2000
   -0.8626   -3.3466    0.0000 O    0  0  0  0  0  0  0  0  0  0  0  0
   -0.8626   -2.5216    0.0000 C    0  0  0  0  0  0  0  0  0  0  0  0
   -1.5771   -2.1091    0.0000 C    0  0  0  0  0  0  0  0  0  0  0  0
   -2.2915   -2.5216    0.0000 C    0  0  0  0  0  0  0  0  0  0  0  0
   -3.0060   -2.1091    0.0000 C    0  0  0  0  0  0  0  0  0  0  0  0
   -3.0060   -1.2841    0.0000 C    0  0  0  0  0  0  0  0  0  0  0  0
   -2.2915   -0.8716    0.0000 C    0  0  0  0  0  0  0  0  0  0  0  0
   -2.2915   -0.0466    0.0000 N    0  0  0  0  0  0  0  0  0  0  0  0
   -1.5771    0.3659    0.0000 C    0  0  0  0  0  0  0  0  0  0  0  0
   -1.5771    1.1909    0.0000 N    0  0  0  0  0  0  0  0  0  0  0  0
   -0.8626    1.6034    0.0000 C    0  0  0  0  0  0  0  0  0  0  0  0
   -0.1481    1.1909    0.0000 C    0  0  0  0  0  0  0  0  0  0  0  0
    0.5664    1.6034    0.0000 C    0  0  0  0  0  0  0  0  0  0  0  0
    1.2808    1.1909    0.0000 C    0  0  0  0  0  0  0  0  0  0  0  0
    1.2808    0.3659    0.0000 C    0  0  0  0  0  0  0  0  0  0  0  0
    1.9953   -0.0466    0.0000 O    0  0  0  0  0  0  0  0  0  0  0  0
    0.5664   -0.0466    0.0000 N    0  0  0  0  0  0  0  0  0  0  0  0
   -0.1481    0.3659    0.0000 C    0  0  0  0  0  0  0  0  0  0  0  0
   -0.8626   -0.0466    0.0000 N    0  0  0  0  0  0  0  0  0  0  0  0
    0.5664   -0.8716    0.0000 C    0  0  0  0  0  0  0  0  0  0  0  0
    1.9953    1.6034    0.0000 C    0  0  0  0  0  0  0  0  0  0  0  0
    1.9953    2.4284    0.0000 C    0  0  0  0  0  0  0  0  0  0  0  0
    1.2808    2.8409    0.0000 Cl   0  0  0  0  0  0  0  0  0  0  0  0
    2.7098    2.8409    0.0000 C    0  0  0  0  0  0  0  0  0  0  0  0
    3.4242    2.4284    0.0000 C    0  0  0  0  0  0  0  0  0  0  0  0
    3.4242    1.6034    0.0000 C    0  0  0  0  0  0  0  0  0  0  0  0
    2.7098    1.1909    0.0000 C    0  0  0  0  0  0  0  0  0  0  0  0
    2.7098    0.3659    0.0000 Cl   0  0  0  0  0  0  0  0  0  0  0  0
   -1.5771   -1.2841    0.0000 C    0  0  0  0  0  0  0  0  0  0  0  0
  1  2  1  0  0  0  0
  2  3  1  0  0  0  0
  3  4  2  0  0  0  0
  3 29  1  0  0  0  0
  4  5  1  0  0  0  0
  5  6  2  0  0  0  0
  6  7  1  0  0  0  0
  7  8  1  0  0  0  0
  7 29  2  0  0  0  0
  8  9  1  0  0  0  0
  9 10  2  0  0  0  0
  9 19  1  0  0  0  0
 10 11  1  0  0  0  0
 11 12  2  0  0  0  0
 12 13  1  0  0  0  0
 12 18  1  0  0  0  0
 13 14  2  0  0  0  0
 14 15  1  0  0  0  0
 14 21  1  0  0  0  0
 15 16  2  0  0  0  0
 15 17  1  0  0  0  0
 17 18  1  0  0  0  0
 17 20  1  0  0  0  0
 18 19  2  0  0  0  0
 21 22  2  0  0  0  0
 21 27  1  0  0  0  0
 22 23  1  0  0  0  0
 22 24  1  0  0  0  0
 24 25  2  0  0  0  0
 25 26  1  0  0  0  0
 26 27  2  0  0  0  0
 27 28  1  0  0  0  0
M  END
> <DRUGBANK_ID>
DB08339

> <DRUG_GROUPS>
experimental

> <GENERIC_NAME>
6-(2,6-DICHLOROPHENYL)-2-{[3-(HYDROXYMETHYL)PHENYL]AMINO}-8-METHYLPYRIDO[2,3-D]PYRIMIDIN-7(8H)-ONE

> <CHEMICAL_FORMULA>
C21H16Cl2N4O2

> <MOLECULAR_WEIGHT>
427.283

> <EXACT_MASS>
426.06503119

> <IUPAC_NAME>
6-(2,6-dichlorophenyl)-2-{[3-(hydroxymethyl)phenyl]amino}-8-methyl-7H,8H-pyrido[2,3-d]pyrimidin-7-one

> <IUPAC_TRADITIONAL_NAME>
6-(2,6-dichlorophenyl)-2-{[3-(hydroxymethyl)phenyl]amino}-8-methylpyrido[2,3-d]pyrimidin-7-one

> <INCHI_IDENTIFIER>
InChI=1S/C21H16Cl2N4O2/c1-27-19-13(9-15(20(27)29)18-16(22)6-3-7-17(18)23)10-24-21(26-19)25-14-5-2-4-12(8-14)11-28/h2-10,28H,11H2,1H3,(H,24,25,26)

> <INCHI_KEY>
InChIKey=ZIQFYVPVJZEOFS-UHFFFAOYSA-N

> <SMILES>
CN1C(=O)C(=CC2=CN=C(NC3=CC(CO)=CC=C3)N=C12)C1=C(Cl)C=CC=C1Cl

> <JCHEM_ACCEPTOR_COUNT>
5

> <JCHEM_DONOR_COUNT>
2

> <JCHEM_ACIDIC_PKA>
13.12

> <JCHEM_BASIC_PKA>
1.51

> <JCHEM_PHYSIOLOGICAL_CHARGE>
0

> <ALOGPS_LOGP>
3.99

> <JCHEM_LOGP>
4.36

> <ALOGPS_LOGS>
-4.5

> <JCHEM_POLARIZABILITY>
43.04

> <JCHEM_POLAR_SURFACE_AREA>
78.35

> <JCHEM_REFRACTIVITY>
114.68

> <JCHEM_ROTATABLE_BOND_COUNT>
3

> <ALOGPS_SOLUBILITY>
1.35e-02 g/l __ 

$$$$
