5147
  Mrv0541 02241214202D          

 10 10  0  0  0  0            999 V2000
    2.0930   -0.0495    0.0000 O   0  0  0  0  0  0  0  0  0  0  0  0
    2.8075    1.1880    0.0000 O   0  0  0  0  0  0  0  0  0  0  0  0
    4.2365    1.1880    0.0000 N   0  0  0  0  0  0  0  0  0  0  0  0
    3.5220   -0.0495    0.0000 C   0  0  0  0  0  0  0  0  0  0  0  0
    2.8075   -0.4620    0.0000 C   0  0  0  0  0  0  0  0  0  0  0  0
    4.2365   -0.4620    0.0000 C   0  0  0  0  0  0  0  0  0  0  0  0
    2.8075   -1.2870    0.0000 C   0  0  0  0  0  0  0  0  0  0  0  0
    4.2365   -1.2870    0.0000 C   0  0  0  0  0  0  0  0  0  0  0  0
    3.5220   -1.6995    0.0000 C   0  0  0  0  0  0  0  0  0  0  0  0
    3.5220    0.7755    0.0000 C   0  0  0  0  0  0  0  0  0  0  0  0
  1  5  1  0  0  0  0
  2 10  2  0  0  0  0
  3 10  1  0  0  0  0
  4  5  1  0  0  0  0
  4  6  2  0  0  0  0
  4 10  1  0  0  0  0
  5  7  2  0  0  0  0
  6  8  1  0  0  0  0
  7  9  1  0  0  0  0
  8  9  2  0  0  0  0
M  END
> <DRUGBANK_ID>
DB08797

> <DRUG_GROUPS>
approved

> <GENERIC_NAME>
Salicylamide

> <SYNONYMS>


> <CHEMICAL_FORMULA>
C7H7NO2

> <MOLECULAR_WEIGHT>
137.136

> <EXACT_MASS>
137.047678473

> <IUPAC_NAME>
2-hydroxybenzamide

> <IUPAC_TRADITIONAL_NAME>
salicylamide

> <INCHI_IDENTIFIER>
InChI=1S/C7H7NO2/c8-7(10)5-3-1-2-4-6(5)9/h1-4,9H,(H2,8,10)

> <INCHI_KEY>
InChIKey=SKZKKFZAGNVIMN-UHFFFAOYSA-N

> <SMILES>
NC(=O)C1=CC=CC=C1O

> <JCHEM_ACCEPTOR_COUNT>
2

> <JCHEM_DONOR_COUNT>
2

> <JCHEM_ACIDIC_PKA>
8.21

> <JCHEM_BASIC_PKA>
-1.8

> <JCHEM_PHYSIOLOGICAL_CHARGE>
0

> <ALOGPS_LOGP>
0.74

> <JCHEM_LOGP>
1.17

> <ALOGPS_LOGS>
-1.2

> <JCHEM_POLARIZABILITY>
13.22

> <JCHEM_POLAR_SURFACE_AREA>
63.32

> <JCHEM_REFRACTIVITY>
37.12

> <JCHEM_ROTATABLE_BOND_COUNT>
1

> <ALOGPS_SOLUBILITY>
7.82e+00 g/l __ 

$$$$
