NDF
  Mrv0541 02241213582D          

 18 18  0  0  0  0            999 V2000
   -1.1808   -1.3304    0.0000 C   0  0  0  0  0  0  0  0  0  0  0  0
   -2.0058   -1.3304    0.0000 C   0  0  0  0  0  0  0  0  0  0  0  0
   -2.4183   -0.6159    0.0000 C   0  0  0  0  0  0  0  0  0  0  0  0
   -2.0058    0.0986    0.0000 C   0  0  0  0  0  0  0  0  0  0  0  0
   -1.1808    0.0986    0.0000 C   0  0  0  0  0  0  0  0  0  0  0  0
   -0.7683   -0.6159    0.0000 C   0  0  0  0  0  0  0  0  0  0  0  0
    0.0567   -0.6159    0.0000 C   0  0  0  0  0  0  0  0  0  0  0  0
    0.4692    0.0986    0.0000 C   0  0  2  0  0  0  0  0  0  0  0  0
    0.0567    0.8130    0.0000 C   0  0  0  0  0  0  0  0  0  0  0  0
   -0.7683    0.8130    0.0000 O   0  0  0  0  0  0  0  0  0  0  0  0
    0.4692    1.5275    0.0000 O   0  0  0  0  0  0  0  0  0  0  0  0
    1.2942    0.0986    0.0000 N   0  0  0  0  0  0  0  0  0  0  0  0
    1.7067    0.8130    0.0000 C   0  0  0  0  0  0  0  0  0  0  0  0
    1.2942    1.5275    0.0000 O   0  0  0  0  0  0  0  0  0  0  0  0
    2.5317    0.8130    0.0000 C   0  0  0  0  0  0  0  0  0  0  0  0
    2.9442    1.5275    0.0000 O   0  0  0  0  0  0  0  0  0  0  0  0
    2.9442    0.0986    0.0000 O   0  0  0  0  0  0  0  0  0  0  0  0
   -0.1147    0.0986    0.0000 H   0  0  0  0  0  0  0  0  0  0  0  0
  1  2  2  0  0  0  0
  1  6  1  0  0  0  0
  2  3  1  0  0  0  0
  3  4  2  0  0  0  0
  4  5  1  0  0  0  0
  5  6  2  0  0  0  0
  6  7  1  0  0  0  0
  7  8  1  0  0  0  0
  8  9  1  0  0  0  0
  8 12  1  1  0  0  0
  8 18  1  1  0  0  0
  9 10  2  0  0  0  0
  9 11  1  0  0  0  0
 12 13  1  0  0  0  0
 13 14  2  0  0  0  0
 13 15  1  0  0  0  0
 15 16  1  0  0  0  0
 15 17  2  0  0  0  0
M  END
> <DRUGBANK_ID>
DB08263

> <DRUG_GROUPS>
experimental

> <GENERIC_NAME>
N-(CARBOXYCARBONYL)-D-PHENYLALANINE

> <CHEMICAL_FORMULA>
C11H11NO5

> <MOLECULAR_WEIGHT>
237.2087

> <EXACT_MASS>
237.063722467

> <IUPAC_NAME>
(2R)-2-(carboxyformamido)-3-phenylpropanoic acid

> <IUPAC_TRADITIONAL_NAME>
(2R)-2-(carboxyformamido)-3-phenylpropanoic acid

> <INCHI_IDENTIFIER>
InChI=1S/C11H11NO5/c13-9(11(16)17)12-8(10(14)15)6-7-4-2-1-3-5-7/h1-5,8H,6H2,(H,12,13)(H,14,15)(H,16,17)/t8-/m1/s1

> <INCHI_KEY>
InChIKey=ULQWGBCNOHBNDB-MRVPVSSYSA-N

> <SMILES>
[H][C@](CC1=CC=CC=C1)(NC(=O)C(O)=O)C(O)=O

> <JCHEM_ACCEPTOR_COUNT>
5

> <JCHEM_DONOR_COUNT>
3

> <JCHEM_ACIDIC_PKA>
2.79

> <JCHEM_BASIC_PKA>
-6.3

> <JCHEM_PHYSIOLOGICAL_CHARGE>
-2

> <ALOGPS_LOGP>
0.61

> <JCHEM_LOGP>
0.86

> <ALOGPS_LOGS>
-2.3

> <JCHEM_POLARIZABILITY>
21.54

> <JCHEM_POLAR_SURFACE_AREA>
103.7

> <JCHEM_REFRACTIVITY>
56.36

> <JCHEM_ROTATABLE_BOND_COUNT>
5

> <ALOGPS_SOLUBILITY>
1.16e+00 g/l __ 

$$$$
