PSY
  Mrv0541 02241214052D          

 12 12  0  0  0  0            999 V2000
    2.1208    0.3151    0.0000 C   0  0  0  0  0  0  0  0  0  0  0  0
    2.1208   -0.5099    0.0000 C   0  0  0  0  0  0  0  0  0  0  0  0
    1.4064    0.7276    0.0000 C   0  0  0  0  0  0  0  0  0  0  0  0
    1.4064   -0.9224    0.0000 C   0  0  0  0  0  0  0  0  0  0  0  0
    0.6919    0.3151    0.0000 C   0  0  0  0  0  0  0  0  0  0  0  0
    0.6919   -0.5099    0.0000 C   0  0  0  0  0  0  0  0  0  0  0  0
   -0.0226   -0.9224    0.0000 O   0  0  0  0  0  0  0  0  0  0  0  0
   -0.7370   -0.5099    0.0000 S   0  0  0  0  0  0  0  0  0  0  0  0
   -0.3245    0.2046    0.0000 O   0  0  0  0  0  0  0  0  0  0  0  0
   -1.1495   -1.2244    0.0000 O   0  0  0  0  0  0  0  0  0  0  0  0
   -1.4515   -0.0974    0.0000 C   0  0  0  0  0  0  0  0  0  0  0  0
   -2.1660   -0.5099    0.0000 C   0  0  0  0  0  0  0  0  0  0  0  0
  1  2  1  0  0  0  0
  2  4  2  0  0  0  0
  3  1  2  0  0  0  0
  3  5  1  0  0  0  0
  5  6  2  0  0  0  0
  6  4  1  0  0  0  0
  6  7  1  0  0  0  0
  8  7  1  0  0  0  0
  8  9  2  0  0  0  0
 10  8  2  0  0  0  0
 11  8  1  0  0  0  0
 12 11  2  0  0  0  0
M  END
> <DRUGBANK_ID>
DB08433

> <DRUG_GROUPS>
experimental

> <GENERIC_NAME>
phenyl ethenesulfonate

> <CHEMICAL_FORMULA>
C8H8O3S

> <MOLECULAR_WEIGHT>
184.212

> <EXACT_MASS>
184.019414812

> <IUPAC_NAME>
phenyl ethene-1-sulfonate

> <IUPAC_TRADITIONAL_NAME>
phenyl ethenesulfonate

> <INCHI_IDENTIFIER>
InChI=1S/C8H8O3S/c1-2-12(9,10)11-8-6-4-3-5-7-8/h2-7H,1H2

> <INCHI_KEY>
InChIKey=CILDJVVXNMDAGY-UHFFFAOYSA-N

> <SMILES>
C=CS(=O)(=O)OC1=CC=CC=C1

> <JCHEM_ACCEPTOR_COUNT>
2

> <JCHEM_DONOR_COUNT>
0

> <JCHEM_BASIC_PKA>
-9.7

> <JCHEM_PHYSIOLOGICAL_CHARGE>
0

> <ALOGPS_LOGP>
1.6

> <JCHEM_LOGP>
1.81

> <ALOGPS_LOGS>
-2.4

> <JCHEM_POLARIZABILITY>
17.26

> <JCHEM_POLAR_SURFACE_AREA>
43.37

> <JCHEM_REFRACTIVITY>
44.95

> <JCHEM_ROTATABLE_BOND_COUNT>
3

> <ALOGPS_SOLUBILITY>
6.91e-01 g/l __ 

$$$$
