MEI
  Mrv0541 02241213552D          

 20 19  0  0  0  0            999 V2000
   -3.4964   -0.8275    0.0000 C   0  0  0  0  0  0  0  0  0  0  0  0
   -2.8728   -0.2874    0.0000 O   0  0  0  0  0  0  0  0  0  0  0  0
   -2.0932   -0.5574    0.0000 C   0  0  0  0  0  0  0  0  0  0  0  0
   -2.3633   -1.3370    0.0000 C   0  0  0  0  0  0  0  0  0  0  0  0
   -1.8232    0.2221    0.0000 C   0  0  0  0  0  0  0  0  0  0  0  0
   -1.3137   -0.8275    0.0000 C   0  0  0  0  0  0  0  0  0  0  0  0
   -0.6900   -0.2874    0.0000 C   0  0  0  0  0  0  0  0  0  0  0  0
    0.0895   -0.5574    0.0000 C   0  0  0  0  0  0  0  0  0  0  0  0
    0.7132   -0.0173    0.0000 C   0  0  2  0  0  0  0  0  0  0  0  0
    0.5573    0.7928    0.0000 C   0  0  0  0  0  0  0  0  0  0  0  0
    1.4927   -0.2874    0.0000 C   0  0  0  0  0  0  0  0  0  0  0  0
    2.1164    0.2527    0.0000 C   0  0  0  0  0  0  0  0  0  0  0  0
    2.8959   -0.0173    0.0000 C   0  0  0  0  0  0  0  0  0  0  0  0
    3.5196    0.5228    0.0000 C   0  0  0  0  0  0  0  0  0  0  0  0
    3.3637    1.3329    0.0000 C   0  0  0  0  0  0  0  0  0  0  0  0
    4.2991    0.2527    0.0000 C   0  0  0  0  0  0  0  0  0  0  0  0
    4.9228    0.7928    0.0000 C   0  0  0  0  0  0  0  0  0  0  0  0
    4.7668    1.6029    0.0000 O   0  0  0  0  0  0  0  0  0  0  0  0
    5.7023    0.5228    0.0000 O   0  0  0  0  0  0  0  0  0  0  0  0
    0.1614    0.1738    0.0000 H   0  0  0  0  0  0  0  0  0  0  0  0
  1  2  1  0  0  0  0
  2  3  1  0  0  0  0
  3  4  1  0  0  0  0
  3  5  1  0  0  0  0
  3  6  1  0  0  0  0
  6  7  1  0  0  0  0
  7  8  1  0  0  0  0
  8  9  1  0  0  0  0
  9 10  1  6  0  0  0
  9 11  1  0  0  0  0
  9 20  1  1  0  0  0
 11 12  1  0  0  0  0
 12 13  2  0  0  0  0
 13 14  1  0  0  0  0
 14 15  1  0  0  0  0
 14 16  2  0  0  0  0
 16 17  1  0  0  0  0
 17 18  1  0  0  0  0
 17 19  2  0  0  0  0
M  END
> <DRUGBANK_ID>
DB08175

> <DRUG_GROUPS>
experimental

> <GENERIC_NAME>
(2E,4E)-11-METHOXY-3,7,11-TRIMETHYLDODECA-2,4-DIENOIC ACID

> <CHEMICAL_FORMULA>
C16H28O3

> <MOLECULAR_WEIGHT>
268.3917

> <EXACT_MASS>
268.203844762

> <IUPAC_NAME>
(2E,4E,7S)-11-methoxy-3,7,11-trimethyldodeca-2,4-dienoic acid

> <IUPAC_TRADITIONAL_NAME>
(2E,4E,7S)-11-methoxy-3,7,11-trimethyldodeca-2,4-dienoic acid

> <INCHI_IDENTIFIER>
InChI=1S/C16H28O3/c1-13(10-7-11-16(3,4)19-5)8-6-9-14(2)12-15(17)18/h6,9,12-13H,7-8,10-11H2,1-5H3,(H,17,18)/b9-6+,14-12+/t13-/m1/s1

> <INCHI_KEY>
InChIKey=MNYBEULOKRVZKY-ATCPXPEISA-N

> <SMILES>
COC(C)(C)CCC[C@@](C)([H])C\C=C\C(\C)=C\C(O)=O

> <JCHEM_ACCEPTOR_COUNT>
3

> <JCHEM_DONOR_COUNT>
1

> <JCHEM_ACIDIC_PKA>
5.05

> <JCHEM_BASIC_PKA>
-4.1

> <JCHEM_PHYSIOLOGICAL_CHARGE>
-1

> <ALOGPS_LOGP>
5.18

> <JCHEM_LOGP>
4.1

> <ALOGPS_LOGS>
-4.5

> <JCHEM_POLARIZABILITY>
32.11

> <JCHEM_POLAR_SURFACE_AREA>
46.53

> <JCHEM_REFRACTIVITY>
80.86

> <JCHEM_ROTATABLE_BOND_COUNT>
9

> <ALOGPS_SOLUBILITY>
8.68e-03 g/l __ 

$$$$
