NB1
  Mrv0541 02241213582D          

 21 22  0  0  0  0            999 V2000
    0.3846   -1.1322    0.0000 C   0  0  2  0  0  0  0  0  0  0  0  0
    0.3846   -0.3072    0.0000 C   0  0  1  0  0  0  0  0  0  0  0  0
    1.0991    0.1053    0.0000 C   0  0  2  0  0  0  0  0  0  0  0  0
    1.8135   -0.3072    0.0000 C   0  0  1  0  0  0  0  0  0  0  0  0
    1.8135   -1.1322    0.0000 C   0  0  1  0  0  0  0  0  0  0  0  0
    2.5280   -1.5447    0.0000 C   0  0  0  0  0  0  0  0  0  0  0  0
   -0.8850   -0.7197    0.0000 C   0  0  0  0  0  0  0  0  0  0  0  0
   -1.7100   -0.7197    0.0000 C   0  0  0  0  0  0  0  0  0  0  0  0
   -2.9475   -0.0052    0.0000 C   0  0  0  0  0  0  0  0  0  0  0  0
   -0.4000   -0.0522    0.0000 N   0  0  0  0  0  0  0  0  0  0  0  0
    1.0991    0.9303    0.0000 O   0  0  0  0  0  0  0  0  0  0  0  0
    2.5280    0.1053    0.0000 O   0  0  0  0  0  0  0  0  0  0  0  0
    1.0991   -1.5447    0.0000 O   0  0  0  0  0  0  0  0  0  0  0  0
    3.2425   -1.1322    0.0000 O   0  0  0  0  0  0  0  0  0  0  0  0
   -0.4000   -1.3871    0.0000 S   0  0  0  0  0  0  0  0  0  0  0  0
   -2.1225   -0.0052    0.0000 C   0  0  0  0  0  0  0  0  0  0  0  0
    0.3235   -1.7129    0.0000 H   0  0  0  0  0  0  0  0  0  0  0  0
    0.3235    0.2736    0.0000 H   0  0  0  0  0  0  0  0  0  0  0  0
    0.5934    0.3973    0.0000 H   0  0  0  0  0  0  0  0  0  0  0  0
    1.8135    0.2768    0.0000 H   0  0  0  0  0  0  0  0  0  0  0  0
    2.3192   -0.8402    0.0000 H   0  0  0  0  0  0  0  0  0  0  0  0
  1  2  1  0  0  0  0
  1 13  1  0  0  0  0
  1 15  1  0  0  0  0
  1 17  1  1  0  0  0
  2  3  1  0  0  0  0
  2 10  1  0  0  0  0
  2 18  1  1  0  0  0
  3  4  1  0  0  0  0
  3 11  1  1  0  0  0
  3 19  1  6  0  0  0
  4  5  1  0  0  0  0
  4 12  1  6  0  0  0
  4 20  1  1  0  0  0
  5  6  1  1  0  0  0
  5 13  1  0  0  0  0
  5 21  1  6  0  0  0
  6 14  1  0  0  0  0
  7  8  1  0  0  0  0
  7 10  2  0  0  0  0
  7 15  1  0  0  0  0
  8 16  1  0  0  0  0
  9 16  1  0  0  0  0
M  END
> <DRUGBANK_ID>
DB08255

> <DRUG_GROUPS>
experimental

> <GENERIC_NAME>
(3AR,5R,6S,7R,7AR)-5-(HYDROXYMETHYL)-2-PROPYL-5,6,7,7A-TETRAHYDRO-3AH-PYRANO[3,2-D][1,3]THIAZOLE-6,7-DIOL

> <CHEMICAL_FORMULA>
C10H17NO4S

> <MOLECULAR_WEIGHT>
247.311

> <EXACT_MASS>
247.087828727

> <IUPAC_NAME>
(3aR,5R,6S,7R,7aR)-5-(hydroxymethyl)-2-propyl-3aH,5H,6H,7H,7aH-pyrano[3,2-d][1,3]thiazole-6,7-diol

> <IUPAC_TRADITIONAL_NAME>
(3aR,5R,6S,7R,7aR)-5-(hydroxymethyl)-2-propyl-3aH,5H,6H,7H,7aH-pyrano[3,2-d][1,3]thiazole-6,7-diol

> <INCHI_IDENTIFIER>
InChI=1S/C10H17NO4S/c1-2-3-6-11-7-9(14)8(13)5(4-12)15-10(7)16-6/h5,7-10,12-14H,2-4H2,1H3/t5-,7-,8-,9-,10-/m1/s1

> <INCHI_KEY>
InChIKey=QWOPEBCGKASVQP-QXOHVQIXSA-N

> <SMILES>
[H][C@]12O[C@]([H])(CO)[C@@]([H])(O)[C@]([H])(O)[C@@]1([H])N=C(CCC)S2

> <JCHEM_ACCEPTOR_COUNT>
5

> <JCHEM_DONOR_COUNT>
3

> <JCHEM_ACIDIC_PKA>
12.81

> <JCHEM_BASIC_PKA>
2.38

> <JCHEM_PHYSIOLOGICAL_CHARGE>
0

> <ALOGPS_LOGP>
-0.2

> <JCHEM_LOGP>
-0.22

> <ALOGPS_LOGS>
-1.6

> <JCHEM_POLARIZABILITY>
25.24

> <JCHEM_POLAR_SURFACE_AREA>
82.28

> <JCHEM_REFRACTIVITY>
59.53

> <JCHEM_ROTATABLE_BOND_COUNT>
3

> <ALOGPS_SOLUBILITY>
6.23e+00 g/l __ 

$$$$
