TXQ
  Mrv0541 02241214142D          

 20 22  0  0  0  0            999 V2000
    0.1118    1.7217    0.0000 O   0  0  0  0  0  0  0  0  0  0  0  0
    0.1118    0.8967    0.0000 C   0  0  0  0  0  0  0  0  0  0  0  0
    0.8263    0.4842    0.0000 C   0  0  0  0  0  0  0  0  0  0  0  0
    1.5408    0.8967    0.0000 C   0  0  0  0  0  0  0  0  0  0  0  0
    1.5408    1.7217    0.0000 O   0  0  0  0  0  0  0  0  0  0  0  0
    2.2553    0.4842    0.0000 C   0  0  0  0  0  0  0  0  0  0  0  0
    2.2553   -0.3408    0.0000 C   0  0  0  0  0  0  0  0  0  0  0  0
    1.5408   -0.7533    0.0000 C   0  0  0  0  0  0  0  0  0  0  0  0
    1.5408   -1.5783    0.0000 O   0  0  0  0  0  0  0  0  0  0  0  0
    0.8263   -0.3408    0.0000 C   0  0  0  0  0  0  0  0  0  0  0  0
    0.1118   -0.7533    0.0000 C   0  0  0  0  0  0  0  0  0  0  0  0
    0.1118   -1.5783    0.0000 O   0  0  0  0  0  0  0  0  0  0  0  0
   -0.6026    0.4842    0.0000 C   0  0  0  0  0  0  0  0  0  0  0  0
   -0.6026   -0.3408    0.0000 C   0  0  0  0  0  0  0  0  0  0  0  0
   -1.3171    0.8967    0.0000 C   0  0  0  0  0  0  0  0  0  0  0  0
   -2.0316    0.4842    0.0000 C   0  0  0  0  0  0  0  0  0  0  0  0
   -2.0316   -0.3408    0.0000 C   0  0  0  0  0  0  0  0  0  0  0  0
   -2.7460   -0.7533    0.0000 O   0  0  0  0  0  0  0  0  0  0  0  0
   -1.3171   -0.7533    0.0000 C   0  0  0  0  0  0  0  0  0  0  0  0
   -1.3171   -1.5783    0.0000 O   0  0  0  0  0  0  0  0  0  0  0  0
  1  2  2  0  0  0  0
  2  3  1  0  0  0  0
  2 13  1  0  0  0  0
  3  4  2  0  0  0  0
  3 10  1  0  0  0  0
  4  5  1  0  0  0  0
  4  6  1  0  0  0  0
  6  7  2  0  0  0  0
  7  8  1  0  0  0  0
  8  9  1  0  0  0  0
  8 10  2  0  0  0  0
 10 11  1  0  0  0  0
 11 12  2  0  0  0  0
 11 14  1  0  0  0  0
 13 14  2  0  0  0  0
 13 15  1  0  0  0  0
 14 19  1  0  0  0  0
 15 16  2  0  0  0  0
 16 17  1  0  0  0  0
 17 18  1  0  0  0  0
 17 19  2  0  0  0  0
 19 20  1  0  0  0  0
M  END
> <DRUGBANK_ID>
DB08660

> <DRUG_GROUPS>
experimental

> <GENERIC_NAME>
1,2,5,8-tetrahydroxyanthracene-9,10-dione

> <CHEMICAL_FORMULA>
C14H8O6

> <MOLECULAR_WEIGHT>
272.2097

> <EXACT_MASS>
272.032087988

> <IUPAC_NAME>
1,2,5,8-tetrahydroxy-9,10-dihydroanthracene-9,10-dione

> <IUPAC_TRADITIONAL_NAME>
quinalizarin

> <INCHI_IDENTIFIER>
InChI=1S/C14H8O6/c15-6-3-4-7(16)11-10(6)12(18)5-1-2-8(17)13(19)9(5)14(11)20/h1-4,15-17,19H

> <INCHI_KEY>
InChIKey=VBHKTXLEJZIDJF-UHFFFAOYSA-N

> <SMILES>
OC1=C(O)C2=C(C=C1)C(=O)C1=C(O)C=CC(O)=C1C2=O

> <JCHEM_ACCEPTOR_COUNT>
6

> <JCHEM_DONOR_COUNT>
4

> <JCHEM_ACIDIC_PKA>
7.5

> <JCHEM_BASIC_PKA>
-4.4

> <JCHEM_PHYSIOLOGICAL_CHARGE>
0

> <ALOGPS_LOGP>
2.2

> <JCHEM_LOGP>
3.65

> <ALOGPS_LOGS>
-2.7

> <JCHEM_POLARIZABILITY>
25.07

> <JCHEM_POLAR_SURFACE_AREA>
115.06

> <JCHEM_REFRACTIVITY>
69.07

> <JCHEM_ROTATABLE_BOND_COUNT>
0

> <ALOGPS_SOLUBILITY>
5.49e-01 g/l __ 

$$$$
