
  Mrv0541 05041310352D          

 52 57  0  0  0  0            999 V2000
   -6.2464    0.4198    0.0000 C   0  0  2  0  0  0  0  0  0  0  0  0
   -6.6589   -0.2946    0.0000 C   0  0  2  0  0  0  0  0  0  0  0  0
   -6.2464   -1.0091    0.0000 O   0  0  0  0  0  0  0  0  0  0  0  0
   -5.4214   -1.0091    0.0000 C   0  0  2  0  0  0  0  0  0  0  0  0
   -5.0089   -0.2947    0.0000 C   0  0  0  0  0  0  0  0  0  0  0  0
   -5.4214    0.4198    0.0000 C   0  0  0  0  0  0  0  0  0  0  0  0
   -6.6589    1.1343    0.0000 N   0  0  0  0  0  0  0  0  0  0  0  0
   -6.2464    1.8488    0.0000 C   0  0  0  0  0  0  0  0  0  0  0  0
   -7.4839    1.1343    0.0000 C   0  0  0  0  0  0  0  0  0  0  0  0
   -7.4839   -0.2946    0.0000 C   0  0  0  0  0  0  0  0  0  0  0  0
   -5.0089   -1.7236    0.0000 O   0  0  0  0  0  0  0  0  0  0  0  0
   -4.0661   -1.7089    0.0000 C   0  0  2  0  0  0  0  0  0  0  0  0
   -3.4768   -0.6998    0.0000 C   0  0  2  0  0  0  0  0  0  0  0  0
   -3.4473   -2.5413    0.0000 C   0  0  0  0  0  0  0  0  0  0  0  0
   -2.5339   -0.7587    0.0000 C   0  0  0  0  0  0  0  0  0  0  0  0
   -3.8598   -3.2557    0.0000 C   0  0  0  0  0  0  0  0  0  0  0  0
   -3.4473   -3.9702    0.0000 C   0  0  0  0  0  0  0  0  0  0  0  0
   -2.6223   -3.9702    0.0000 C   0  0  1  0  0  0  0  0  0  0  0  0
   -2.2098   -3.2557    0.0000 O   0  0  0  0  0  0  0  0  0  0  0  0
   -1.4954   -2.8432    0.0000 C   0  0  0  0  0  0  0  0  0  0  0  0
   -0.9120   -3.4266    0.0000 O   0  0  0  0  0  0  0  0  0  0  0  0
   -0.5669   -1.6088    0.0000 C   0  0  0  0  0  0  0  0  0  0  0  0
   -3.8875    0.0157    0.0000 C   0  0  0  0  0  0  0  0  0  0  0  0
   -2.4383   -1.4967    0.0000 O   0  0  0  0  0  0  0  0  0  0  0  0
   -0.6409    0.5156    0.0000 C   0  0  1  0  0  0  0  0  0  0  0  0
   -2.2098   -4.6847    0.0000 C   0  0  0  0  0  0  0  0  0  0  0  0
   -2.6223   -5.3991    0.0000 C   0  0  0  0  0  0  0  0  0  0  0  0
    0.5966    1.2301    0.0000 C   0  0  2  0  0  0  0  0  0  0  0  0
   -0.2284    1.2301    0.0000 C   0  0  1  0  0  0  0  0  0  0  0  0
   -0.2284   -0.1989    0.0000 C   0  0  1  0  0  0  0  0  0  0  0  0
    0.5966   -0.1989    0.0000 C   0  0  0  0  0  0  0  0  0  0  0  0
    1.0091    0.5156    0.0000 C   0  0  0  0  0  0  0  0  0  0  0  0
    0.1841    2.4996    0.0000 C   0  0  1  0  0  0  0  0  0  0  0  0
   -0.4833    2.0147    0.0000 C   0  0  0  0  0  0  0  0  0  0  0  0
    0.8516    2.0147    0.0000 C   0  0  0  0  0  0  0  0  0  0  0  0
    0.1841    3.3246    0.0000 O   0  0  0  0  0  0  0  0  0  0  0  0
    1.5321    4.9500    0.0000 C   0  0  2  0  0  0  0  0  0  0  0  0
    0.8177    4.5375    0.0000 C   0  0  0  0  0  0  0  0  0  0  0  0
    0.8177    3.7125    0.0000 C   0  0  2  0  0  0  0  0  0  0  0  0
    1.5321    3.3000    0.0000 C   0  0  1  0  0  0  0  0  0  0  0  0
    2.2466    3.7125    0.0000 C   0  0  1  0  0  0  0  0  0  0  0  0
    2.2466    4.5375    0.0000 C   0  0  1  0  0  0  0  0  0  0  0  0
    1.5321    2.4750    0.0000 O   0  0  0  0  0  0  0  0  0  0  0  0
    2.2466    2.0625    0.0000 C   0  0  0  0  0  0  0  0  0  0  0  0
    2.9611    3.3000    0.0000 O   0  0  0  0  0  0  0  0  0  0  0  0
    3.6756    3.7125    0.0000 C   0  0  0  0  0  0  0  0  0  0  0  0
    2.9611    4.9500    0.0000 O   0  0  0  0  0  0  0  0  0  0  0  0
    2.9611    5.7750    0.0000 C   0  0  0  0  0  0  0  0  0  0  0  0
    1.5321    5.7750    0.0000 C   0  0  0  0  0  0  0  0  0  0  0  0
   -0.7804   -0.8119    0.0000 C   0  0  1  0  0  0  0  0  0  0  0  0
   -1.5341   -0.4764    0.0000 C   0  0  0  0  0  0  0  0  0  0  0  0
   -1.4479    0.3441    0.0000 C   0  0  0  0  0  0  0  0  0  0  0  0
  1  2  1  0  0  0  0
  1  6  1  0  0  0  0
  2  3  1  0  0  0  0
  3  4  1  0  0  0  0
  4  5  1  0  0  0  0
  5  6  1  0  0  0  0
  1  7  1  1  0  0  0
  7  8  1  0  0  0  0
  7  9  1  0  0  0  0
  2 10  1  6  0  0  0
  4 11  1  6  0  0  0
 12 13  1  0  0  0  0
 12 14  1  0  0  0  0
 12 11  1  6  0  0  0
 13 15  1  0  0  0  0
 14 16  1  0  0  0  0
 16 17  1  0  0  0  0
 17 18  1  0  0  0  0
 18 19  1  0  0  0  0
 19 20  1  0  0  0  0
 20 21  2  0  0  0  0
 20 22  1  0  0  0  0
 13 23  1  1  0  0  0
 15 24  2  0  0  0  0
 18 26  1  1  0  0  0
 26 27  1  0  0  0  0
 29 25  1  0  0  0  0
 28 32  1  1  0  0  0
 30 31  1  1  0  0  0
 31 32  2  0  0  0  0
 28 35  1  0  0  0  0
 29 28  1  0  0  0  0
 29 34  1  6  0  0  0
 33 34  1  0  0  0  0
 33 35  1  0  0  0  0
 33 36  1  6  0  0  0
 37 38  1  0  0  0  0
 38 39  1  0  0  0  0
 39 40  1  0  0  0  0
 40 41  1  0  0  0  0
 41 42  1  0  0  0  0
 37 42  1  0  0  0  0
 39 36  1  6  0  0  0
 40 43  1  1  0  0  0
 43 44  1  0  0  0  0
 41 45  1  1  0  0  0
 45 46  1  0  0  0  0
 42 47  1  6  0  0  0
 47 48  1  0  0  0  0
 37 49  1  1  0  0  0
 25 52  1  1  0  0  0
 25 30  1  0  0  0  0
 30 50  1  0  0  0  0
 50 51  1  0  0  0  0
 51 52  2  0  0  0  0
 15 51  1  0  0  0  0
 50 22  1  6  0  0  0
M  END
> <DRUGBANK_ID>
DB08823

> <DRUG_GROUPS>
approved; experimental; investigational

> <GENERIC_NAME>
Spinosad

> <SYNONYMS>
1H-as-Indaceno[3,2-d]oxacyclododecin-7,15-dione, 2-[(6-deoxy-2,3,4-tri-O-methyl-alpha-L-mannopyranosyl)oxy]-13-[[2R,5S,6R)-5-(dimethylamino) tetrahydro-6-methyl-2H-pyran-2-yl]oxy]-9-ethyl-2,3,3a,5a,5b,6,9,10,11,12,13,14,16a,16b-tetradecahydro-4,14-dimetyl-,(2S,3aSR,5aS,5bS,9S,13S,14R,16aS,16bS)-; 1H-as-Indaceno[3,2-d]oxacyclododecin-7,a5-dione, 2-[(6-deoxy-2,3,4-tri-O-methyl-alpha-L-mannopyranosyl)oxy]-13-[[2R,5S,6R)-5-(dimethylamino) tetrahydro-6-methyl-2H-pyran-2-yl]oxy]-9-ethyl-2,3,3a,5a,5b,6,9,10,11,12,13,14,16a,16b-tetradecahydro-14-metyl-, (2R,3aS,5aR,5bS,9S,13S,14R,16aS,16bR)-; NAF-144; XDE-105

> <BRANDS>
Natroba; Spinosad; Success 

> <CHEMICAL_FORMULA>
C42H67NO9

> <MOLECULAR_WEIGHT>
729.9827

> <EXACT_MASS>
729.481582747

> <IUPAC_NAME>
(2R,3aS,5aR,5bS,9S,13S,14R,16aS,16bR)-13-{[(2R,5S,6R)-5-(dimethylamino)-6-methyloxan-2-yl]oxy}-9-ethyl-14-methyl-2-{[(1R,2S,3R,4S,5R)-2,3,4-trimethoxy-5-methylcyclohexyl]oxy}-1H,2H,3H,3aH,5aH,5bH,6H,7H,9H,10H,11H,12H,13H,14H,15H,16aH,16bH-as-indaceno[3,2-d]oxacyclododecane-7,15-dione

> <IUPAC_TRADITIONAL_NAME>
(2R,3aS,5aR,5bS,9S,13S,14R,16aS,16bR)-13-{[(2R,5S,6R)-5-(dimethylamino)-6-methyloxan-2-yl]oxy}-9-ethyl-14-methyl-2-{[(1R,2S,3R,4S,5R)-2,3,4-trimethoxy-5-methylcyclohexyl]oxy}-1H,2H,3H,3aH,5aH,5bH,6H,9H,10H,11H,12H,13H,14H,16aH,16bH-as-indaceno[3,2-d]oxacyclododecane-7,15-dione

> <INCHI_IDENTIFIER>
InChI=1S/C42H67NO9/c1-10-27-12-11-13-35(52-38-17-16-34(43(5)6)25(4)49-38)24(3)39(45)33-21-31-29(32(33)22-37(44)51-27)15-14-26-19-28(20-30(26)31)50-36-18-23(2)40(46-7)42(48-9)41(36)47-8/h14-15,21,23-32,34-36,38,40-42H,10-13,16-20,22H2,1-9H3/t23-,24-,25-,26-,27+,28-,29-,30-,31-,32+,34+,35+,36-,38+,40+,41+,42-/m1/s1

> <INCHI_KEY>
InChIKey=SRYYCRXKYKWXDQ-PTGKCMAJSA-N

> <SMILES>
CC[C@H]1CCC[C@H](O[C@H]2CC[C@@H]([C@@H](C)O2)N(C)C)[C@@H](C)C(=O)C2=C[C@H]3[C@@H]4C[C@@H](C[C@H]4C=C[C@H]3[C@@H]2CC(=O)O1)O[C@@H]1C[C@@H](C)[C@H](OC)[C@@H](OC)[C@H]1OC

> <JCHEM_ACCEPTOR_COUNT>
9

> <JCHEM_DONOR_COUNT>
0

> <JCHEM_ACIDIC_PKA>
19.45

> <JCHEM_BASIC_PKA>
8.56

> <JCHEM_PHYSIOLOGICAL_CHARGE>
1

> <ALOGPS_LOGP>
4.57

> <JCHEM_LOGP>
5.91

> <ALOGPS_LOGS>
-5.9

> <JCHEM_POLARIZABILITY>
84.92

> <JCHEM_POLAR_SURFACE_AREA>
101.99

> <JCHEM_REFRACTIVITY>
201.03

> <JCHEM_ROTATABLE_BOND_COUNT>
9

> <ALOGPS_SOLUBILITY>
9.55e-04 g/l __ 

$$$$
