 
  Mrv0541 06031315492D          
 
 33 35  0  0  0  0            999 V2000
   17.3663   -9.8587    0.0000 C    0  0  0  0  0  0  0  0  0  0  0  0
   17.3663  -10.6837    0.0000 C    0  0  0  0  0  0  0  0  0  0  0  0
   16.6238  -11.0962    0.0000 C    0  0  0  0  0  0  0  0  0  0  0  0
   15.9225  -10.6837    0.0000 C    0  0  0  0  0  0  0  0  0  0  0  0
   15.9225   -9.8587    0.0000 C    0  0  0  0  0  0  0  0  0  0  0  0
   16.6238   -9.4462    0.0000 C    0  0  0  0  0  0  0  0  0  0  0  0
   18.0675   -9.4462    0.0000 Cl   0  0  0  0  0  0  0  0  0  0  0  0
   15.1800  -11.0962    0.0000 N    0  0  0  0  0  0  0  0  0  0  0  0
   14.4788  -10.6837    0.0000 C    0  0  0  0  0  0  0  0  0  0  0  0
   13.7775  -11.0962    0.0000 N    0  0  0  0  0  0  0  0  0  0  0  0
   14.4788   -9.8587    0.0000 O    0  0  0  0  0  0  0  0  0  0  0  0
   13.0763  -10.6837    0.0000 C    0  0  0  0  0  0  0  0  0  0  0  0
   12.3750  -11.0962    0.0000 C    0  0  0  0  0  0  0  0  0  0  0  0
   11.6325  -10.6837    0.0000 C    0  0  0  0  0  0  0  0  0  0  0  0
   11.6325   -9.8587    0.0000 C    0  0  0  0  0  0  0  0  0  0  0  0
   12.3338   -9.4462    0.0000 C    0  0  0  0  0  0  0  0  0  0  0  0
   13.0763   -9.8587    0.0000 C    0  0  0  0  0  0  0  0  0  0  0  0
   10.9725   -9.4462    0.0000 O    0  0  0  0  0  0  0  0  0  0  0  0
   10.2713   -9.8587    0.0000 C    0  0  0  0  0  0  0  0  0  0  0  0
   10.2713  -10.6837    0.0000 C    0  0  0  0  0  0  0  0  0  0  0  0
    9.5288  -11.0962    0.0000 C    0  0  0  0  0  0  0  0  0  0  0  0
    8.8275  -10.6837    0.0000 N    0  0  0  0  0  0  0  0  0  0  0  0
    8.8275   -9.8175    0.0000 C    0  0  0  0  0  0  0  0  0  0  0  0
    9.5288   -9.4050    0.0000 C    0  0  0  0  0  0  0  0  0  0  0  0
    8.1263   -9.4462    0.0000 C    0  0  0  0  0  0  0  0  0  0  0  0
    7.3838   -9.8587    0.0000 N    0  0  0  0  0  0  0  0  0  0  0  0
    8.1263   -8.6212    0.0000 O    0  0  0  0  0  0  0  0  0  0  0  0
    6.6825   -9.4462    0.0000 C    0  0  0  0  0  0  0  0  0  0  0  0
   12.3750  -11.9212    0.0000 F    0  0  0  0  0  0  0  0  0  0  0  0
   16.6238   -8.6212    0.0000 C    0  0  0  0  0  0  0  0  0  0  0  0
   16.6238   -7.7962    0.0000 F    0  0  0  0  0  0  0  0  0  0  0  0
   15.7988   -8.6212    0.0000 F    0  0  0  0  0  0  0  0  0  0  0  0
   17.4488   -8.6212    0.0000 F    0  0  0  0  0  0  0  0  0  0  0  0
  1  2  2  0  0  0  0
  2  3  1  0  0  0  0
  3  4  2  0  0  0  0
  4  5  1  0  0  0  0
  5  6  2  0  0  0  0
  1  6  1  0  0  0  0
  1  7  1  0  0  0  0
  4  8  1  0  0  0  0
  8  9  1  0  0  0  0
  9 10  1  0  0  0  0
  9 11  2  0  0  0  0
 10 12  1  0  0  0  0
 12 13  2  0  0  0  0
 13 14  1  0  0  0  0
 14 15  2  0  0  0  0
 15 16  1  0  0  0  0
 16 17  2  0  0  0  0
 12 17  1  0  0  0  0
 15 18  1  0  0  0  0
 18 19  1  0  0  0  0
 19 20  2  0  0  0  0
 20 21  1  0  0  0  0
 21 22  2  0  0  0  0
 22 23  1  0  0  0  0
 23 24  2  0  0  0  0
 19 24  1  0  0  0  0
 23 25  1  0  0  0  0
 25 26  1  0  0  0  0
 25 27  2  0  0  0  0
 26 28  1  0  0  0  0
 13 29  1  0  0  0  0
  6 30  1  0  0  0  0
 30 31  1  0  0  0  0
 30 32  1  0  0  0  0
 30 33  1  0  0  0  0
M  END
> <DRUGBANK_ID>
DB08896

> <DRUG_GROUPS>
approved

> <GENERIC_NAME>
Regorafenib

> <BRANDS>
Stivarga 

> <CHEMICAL_FORMULA>
C21H15ClF4N4O3

> <MOLECULAR_WEIGHT>
482.815

> <EXACT_MASS>
482.076880893

> <IUPAC_NAME>
4-[4-({[4-chloro-3-(trifluoromethyl)phenyl]carbamoyl}amino)-3-fluorophenoxy]-N-methylpyridine-2-carboxamide

> <IUPAC_TRADITIONAL_NAME>
regorafenib

> <INCHI_IDENTIFIER>
InChI=1S/C21H15ClF4N4O3/c1-27-19(31)18-10-13(6-7-28-18)33-12-3-5-17(16(23)9-12)30-20(32)29-11-2-4-15(22)14(8-11)21(24,25)26/h2-10H,1H3,(H,27,31)(H2,29,30,32)

> <INCHI_KEY>
InChIKey=FNHKPVJBJVTLMP-UHFFFAOYSA-N

> <SMILES>
CNC(=O)C1=CC(OC2=CC(F)=C(NC(=O)NC3=CC=C(Cl)C(=C3)C(F)(F)F)C=C2)=CC=N1

> <JCHEM_ACCEPTOR_COUNT>
3

> <JCHEM_DONOR_COUNT>
3

> <JCHEM_ACIDIC_PKA>
10.52

> <JCHEM_BASIC_PKA>
2.02

> <JCHEM_PHYSIOLOGICAL_CHARGE>
0

> <ALOGPS_LOGP>
4.53

> <JCHEM_LOGP>
4.49

> <ALOGPS_LOGS>
-5.7

> <JCHEM_POLARIZABILITY>
41.23

> <JCHEM_POLAR_SURFACE_AREA>
92.35

> <JCHEM_REFRACTIVITY>
114.73

> <JCHEM_ROTATABLE_BOND_COUNT>
6

> <ALOGPS_SOLUBILITY>
1.02e-03 g/l __ 

$$$$
