MTW
  Mrv0541 02241213562D          

 28 31  0  0  0  0            999 V2000
    3.8956   -1.2973    0.0000 C   0  0  0  0  0  0  0  0  0  0  0  0
    4.5630   -1.7822    0.0000 N   0  0  0  0  0  0  0  0  0  0  0  0
    4.3081   -2.5668    0.0000 C   0  0  0  0  0  0  0  0  0  0  0  0
    3.4831   -2.5668    0.0000 N   0  0  0  0  0  0  0  0  0  0  0  0
    3.2282   -1.7822    0.0000 N   0  0  0  0  0  0  0  0  0  0  0  0
    2.4435   -1.5273    0.0000 C   0  0  0  0  0  0  0  0  0  0  0  0
    2.2720   -0.7203    0.0000 C   0  0  0  0  0  0  0  0  0  0  0  0
    1.4874   -0.4654    0.0000 C   0  0  0  0  0  0  0  0  0  0  0  0
    2.8851   -0.1683    0.0000 C   0  0  0  0  0  0  0  0  0  0  0  0
    2.7136    0.6387    0.0000 C   0  0  0  0  0  0  0  0  0  0  0  0
    1.9290    0.8936    0.0000 C   0  0  0  0  0  0  0  0  0  0  0  0
    1.3159    0.3416    0.0000 C   0  0  0  0  0  0  0  0  0  0  0  0
    0.5312    0.5965    0.0000 C   0  0  0  0  0  0  0  0  0  0  0  0
   -0.0818    0.0445    0.0000 N   0  0  0  0  0  0  0  0  0  0  0  0
    0.3597    1.4035    0.0000 C   0  0  0  0  0  0  0  0  0  0  0  0
   -0.4249    1.6584    0.0000 C   0  0  0  0  0  0  0  0  0  0  0  0
   -1.0380    1.1064    0.0000 N   0  0  0  0  0  0  0  0  0  0  0  0
   -0.8665    0.2994    0.0000 C   0  0  0  0  0  0  0  0  0  0  0  0
   -1.4796   -0.2526    0.0000 N   0  0  0  0  0  0  0  0  0  0  0  0
   -2.2642    0.0023    0.0000 C   0  0  0  0  0  0  0  0  0  0  0  0
   -2.8773   -0.5497    0.0000 C   0  0  0  0  0  0  0  0  0  0  0  0
   -2.4357    0.8093    0.0000 C   0  0  0  0  0  0  0  0  0  0  0  0
   -3.2203    1.0643    0.0000 C   0  0  0  0  0  0  0  0  0  0  0  0
   -3.8334    0.5122    0.0000 C   0  0  0  0  0  0  0  0  0  0  0  0
   -3.6619   -0.2947    0.0000 C   0  0  0  0  0  0  0  0  0  0  0  0
   -4.2750   -0.8468    0.0000 N   0  3  0  0  0  0  0  0  0  0  0  0
   -4.1035   -1.6538    0.0000 O   0  5  0  0  0  0  0  0  0  0  0  0
   -5.0596   -0.5918    0.0000 O   0  0  0  0  0  0  0  0  0  0  0  0
  1  2  2  0  0  0  0
  1  5  1  0  0  0  0
  2  3  1  0  0  0  0
  3  4  2  0  0  0  0
  4  5  1  0  0  0  0
  5  6  1  0  0  0  0
  6  7  1  0  0  0  0
  7  8  2  0  0  0  0
  7  9  1  0  0  0  0
  8 12  1  0  0  0  0
  9 10  2  0  0  0  0
 10 11  1  0  0  0  0
 11 12  2  0  0  0  0
 12 13  1  0  0  0  0
 13 14  2  0  0  0  0
 13 15  1  0  0  0  0
 14 18  1  0  0  0  0
 15 16  1  0  0  0  0
 16 17  2  0  0  0  0
 17 18  1  0  0  0  0
 18 19  2  0  0  0  0
 19 20  1  0  0  0  0
 20 21  2  0  0  0  0
 20 22  1  0  0  0  0
 21 25  1  0  0  0  0
 22 23  2  0  0  0  0
 23 24  1  0  0  0  0
 24 25  2  0  0  0  0
 25 26  1  0  0  0  0
 26 27  1  0  0  0  0
 26 28  2  0  0  0  0
M  END
> <DRUGBANK_ID>
DB08218

> <DRUG_GROUPS>
experimental

> <GENERIC_NAME>
HYDROXY(OXO)(3-{[(2Z)-4-[3-(1H-1,2,4-TRIAZOL-1-YLMETHYL)PHENYL]PYRIMIDIN-2(5H)-YLIDENE]AMINO}PHENYL)AMMONIUM

> <CHEMICAL_FORMULA>
C19H15N7O2

> <MOLECULAR_WEIGHT>
373.3681

> <EXACT_MASS>
373.128722759

> <IUPAC_NAME>
(2E)-N-(3-nitrophenyl)-4-[3-(1H-1,2,4-triazol-1-ylmethyl)phenyl]-2,5-dihydropyrimidin-2-imine

> <IUPAC_TRADITIONAL_NAME>
(2E)-N-(3-nitrophenyl)-4-[3-(1,2,4-triazol-1-ylmethyl)phenyl]-5H-pyrimidin-2-imine

> <INCHI_IDENTIFIER>
InChI=1S/C19H15N7O2/c27-26(28)17-6-2-5-16(10-17)23-19-21-8-7-18(24-19)15-4-1-3-14(9-15)11-25-13-20-12-22-25/h1-6,8-10,12-13H,7,11H2/b23-19+

> <INCHI_KEY>
InChIKey=PLQVWKCQWFFUFJ-FCDQGJHFSA-N

> <SMILES>
[O-][N+](=O)C1=CC=CC(=C1)\N=C1/N=CCC(=N1)C1=CC=CC(CN2C=NC=N2)=C1

> <JCHEM_ACCEPTOR_COUNT>
7

> <JCHEM_DONOR_COUNT>
0

> <JCHEM_ACIDIC_PKA>
13.51

> <JCHEM_BASIC_PKA>
2.25

> <JCHEM_PHYSIOLOGICAL_CHARGE>
0

> <ALOGPS_LOGP>
2.62

> <JCHEM_LOGP>
2.76

> <ALOGPS_LOGS>
-3.8

> <JCHEM_POLARIZABILITY>
38.15

> <JCHEM_POLAR_SURFACE_AREA>
113.61

> <JCHEM_REFRACTIVITY>
118.1

> <JCHEM_ROTATABLE_BOND_COUNT>
5

> <ALOGPS_SOLUBILITY>
6.19e-02 g/l __ 

$$$$
