PTG
  Mrv0541 02241214052D          

 24 24  0  0  0  0            999 V2000
   -3.9683   -3.3131    0.0000 C   0  0  0  0  0  0  0  0  0  0  0  0
   -3.1837   -3.0582    0.0000 C   0  0  0  0  0  0  0  0  0  0  0  0
   -3.0122   -2.2512    0.0000 C   0  0  0  0  0  0  0  0  0  0  0  0
   -2.2275   -1.9963    0.0000 C   0  0  0  0  0  0  0  0  0  0  0  0
   -2.0560   -1.1893    0.0000 C   0  0  0  0  0  0  0  0  0  0  0  0
   -1.2714   -0.9344    0.0000 C   0  0  0  0  0  0  0  0  0  0  0  0
   -1.0999   -0.1274    0.0000 C   0  0  0  0  0  0  0  0  0  0  0  0
   -0.3153    0.1275    0.0000 C   0  0  0  0  0  0  0  0  0  0  0  0
   -0.1437    0.9345    0.0000 C   0  0  0  0  0  0  0  0  0  0  0  0
   -0.6958    1.5476    0.0000 C   0  0  0  0  0  0  0  0  0  0  0  0
   -1.5162    1.4614    0.0000 O   0  0  0  0  0  0  0  0  0  0  0  0
   -0.2833    2.2621    0.0000 C   0  0  0  0  0  0  0  0  0  0  0  0
    0.5237    2.0905    0.0000 C   0  0  0  0  0  0  0  0  0  0  0  0
    0.6100    1.2701    0.0000 C   0  0  2  0  0  0  0  0  0  0  0  0
    1.3244    0.8576    0.0000 C   0  0  0  0  0  0  0  0  0  0  0  0
    2.0389    1.2701    0.0000 C   0  0  0  0  0  0  0  0  0  0  0  0
    2.7534    0.8576    0.0000 C   0  0  0  0  0  0  0  0  0  0  0  0
    3.4678    1.2701    0.0000 C   0  0  0  0  0  0  0  0  0  0  0  0
    4.1823    0.8576    0.0000 C   0  0  0  0  0  0  0  0  0  0  0  0
    4.8968    1.2701    0.0000 C   0  0  0  0  0  0  0  0  0  0  0  0
    5.6112    0.8576    0.0000 C   0  0  0  0  0  0  0  0  0  0  0  0
    6.3257    1.2701    0.0000 O   0  0  0  0  0  0  0  0  0  0  0  0
    5.6112    0.0326    0.0000 O   0  0  0  0  0  0  0  0  0  0  0  0
    0.5794    0.6869    0.0000 H   0  0  0  0  0  0  0  0  0  0  0  0
  1  2  1  0  0  0  0
  2  3  1  0  0  0  0
  3  4  1  0  0  0  0
  4  5  1  0  0  0  0
  5  6  1  0  0  0  0
  6  7  2  0  0  0  0
  7  8  1  0  0  0  0
  8  9  2  0  0  0  0
  9 10  1  0  0  0  0
  9 14  1  0  0  0  0
 10 11  2  0  0  0  0
 12 13  2  0  0  0  0
 12 10  1  0  0  0  0
 13 14  1  0  0  0  0
 14 15  1  6  0  0  0
 14 24  1  1  0  0  0
 15 16  1  0  0  0  0
 16 17  2  0  0  0  0
 17 18  1  0  0  0  0
 18 19  1  0  0  0  0
 19 20  1  0  0  0  0
 20 21  1  0  0  0  0
 21 22  2  0  0  0  0
 21 23  1  0  0  0  0
M  END
> <DRUGBANK_ID>
DB08435

> <DRUG_GROUPS>
experimental

> <GENERIC_NAME>
(5E,14E)-11-oxoprosta-5,9,12,14-tetraen-1-oic acid

> <CHEMICAL_FORMULA>
C20H28O3

> <MOLECULAR_WEIGHT>
316.4345

> <EXACT_MASS>
316.203844762

> <IUPAC_NAME>
(5E)-7-[(1S,5Z)-5-[(2E)-oct-2-en-1-ylidene]-4-oxocyclopent-2-en-1-yl]hept-5-enoic acid

> <IUPAC_TRADITIONAL_NAME>
(5E)-7-[(1S,5Z)-5-[(2E)-oct-2-en-1-ylidene]-4-oxocyclopent-2-en-1-yl]hept-5-enoic acid

> <INCHI_IDENTIFIER>
InChI=1S/C20H28O3/c1-2-3-4-5-6-10-13-18-17(15-16-19(18)21)12-9-7-8-11-14-20(22)23/h6-7,9-10,13,15-17H,2-5,8,11-12,14H2,1H3,(H,22,23)/b9-7+,10-6+,18-13-/t17-/m0/s1

> <INCHI_KEY>
InChIKey=VHRUMKCAEVRUBK-XOVNXQNQSA-N

> <SMILES>
[H][C@]1(C\C=C\CCCC(O)=O)C=CC(=O)\C1=C/C=C/CCCCC

> <JCHEM_ACCEPTOR_COUNT>
3

> <JCHEM_DONOR_COUNT>
1

> <JCHEM_ACIDIC_PKA>
4.66

> <JCHEM_BASIC_PKA>
-5

> <JCHEM_PHYSIOLOGICAL_CHARGE>
-1

> <ALOGPS_LOGP>
5.39

> <JCHEM_LOGP>
5.46

> <ALOGPS_LOGS>
-5

> <JCHEM_POLARIZABILITY>
37.87

> <JCHEM_POLAR_SURFACE_AREA>
54.37

> <JCHEM_REFRACTIVITY>
98.45

> <JCHEM_ROTATABLE_BOND_COUNT>
11

> <ALOGPS_SOLUBILITY>
3.00e-03 g/l __ 

$$$$
