1548992
  Mrv0541 02241214202D          

 15 15  0  0  0  0            999 V2000
    2.8795   -0.5306    0.0000 S   0  0  0  0  0  0  0  0  0  0  0  0
    2.3577    2.3980    0.0000 S   0  0  0  0  0  0  0  0  0  0  0  0
    2.3176   -3.2215    0.0000 N   0  0  0  0  0  0  0  0  0  0  0  0
    3.5138    1.5580    0.0000 N   0  0  0  0  0  0  0  0  0  0  0  0
    1.9050   -1.9518    0.0000 N   0  0  0  0  0  0  0  0  0  0  0  0
    3.6631    2.9792    0.0000 N   0  0  0  0  0  0  0  0  0  0  0  0
    2.7301   -1.9518    0.0000 C   0  0  0  0  0  0  0  0  0  0  0  0
    3.2150   -1.2843    0.0000 C   0  0  0  0  0  0  0  0  0  0  0  0
    3.3644    0.1369    0.0000 C   0  0  0  0  0  0  0  0  0  0  0  0
    2.9850   -2.7365    0.0000 C   0  0  0  0  0  0  0  0  0  0  0  0
    3.0288    0.8906    0.0000 C   0  0  0  0  0  0  0  0  0  0  0  0
    3.7697   -2.9915    0.0000 C   0  0  0  0  0  0  0  0  0  0  0  0
    1.6501   -2.7365    0.0000 C   0  0  0  0  0  0  0  0  0  0  0  0
    3.1782    2.3118    0.0000 C   0  0  0  0  0  0  0  0  0  0  0  0
    3.3276    3.7329    0.0000 C   0  0  0  0  0  0  0  0  0  0  0  0
  1  8  1  0  0  0  0
  1  9  1  0  0  0  0
  2 14  2  0  0  0  0
  3 10  1  0  0  0  0
  3 13  1  0  0  0  0
  4 11  1  0  0  0  0
  4 14  1  0  0  0  0
  5  7  1  0  0  0  0
  5 13  2  0  0  0  0
  6 14  1  0  0  0  0
  6 15  1  0  0  0  0
  7  8  1  0  0  0  0
  7 10  2  0  0  0  0
  9 11  1  0  0  0  0
 10 12  1  0  0  0  0
M  END
> <DRUGBANK_ID>
DB08805

> <DRUG_GROUPS>
experimental

> <GENERIC_NAME>
Metiamide

> <SYNONYMS>


> <CHEMICAL_FORMULA>
C9H16N4S2

> <MOLECULAR_WEIGHT>
244.38

> <EXACT_MASS>
244.081637912

> <IUPAC_NAME>
3-methyl-1-(2-{[(5-methyl-1H-imidazol-4-yl)methyl]sulfanyl}ethyl)thiourea

> <IUPAC_TRADITIONAL_NAME>
metiamide

> <INCHI_IDENTIFIER>
InChI=1S/C9H16N4S2/c1-7-8(13-6-12-7)5-15-4-3-11-9(14)10-2/h6H,3-5H2,1-2H3,(H,12,13)(H2,10,11,14)

> <INCHI_KEY>
InChIKey=FPBPLBWLMYGIQR-UHFFFAOYSA-N

> <SMILES>
CNC(=S)NCCSCC1=C(C)NC=N1

> <JCHEM_ACCEPTOR_COUNT>
1

> <JCHEM_DONOR_COUNT>
3

> <JCHEM_ACIDIC_PKA>
12.48

> <JCHEM_BASIC_PKA>
6.91

> <JCHEM_PHYSIOLOGICAL_CHARGE>
0

> <ALOGPS_LOGP>
0.5

> <JCHEM_LOGP>
0.34

> <ALOGPS_LOGS>
-3.9

> <JCHEM_POLARIZABILITY>
27.19

> <JCHEM_POLAR_SURFACE_AREA>
52.74

> <JCHEM_REFRACTIVITY>
70.4

> <JCHEM_ROTATABLE_BOND_COUNT>
5

> <ALOGPS_SOLUBILITY>
2.87e-02 g/l __ 

$$$$
