TDI
  Mrv0541 02241214122D          

 22 24  0  0  0  0            999 V2000
    3.1026   -0.8525    0.0000 C   0  0  0  0  0  0  0  0  0  0  0  0
    1.6736   -0.8525    0.0000 C   0  0  0  0  0  0  0  0  0  0  0  0
    1.6736   -1.6775    0.0000 C   0  0  0  0  0  0  0  0  0  0  0  0
    2.3881   -2.0900    0.0000 C   0  0  0  0  0  0  0  0  0  0  0  0
   -3.2400    2.0807    0.0000 C   0  0  0  0  0  0  0  0  0  0  0  0
   -2.6880    1.4676    0.0000 S   0  0  0  0  0  0  0  0  0  0  0  0
   -1.8810    1.6392    0.0000 C   0  0  0  0  0  0  0  0  0  0  0  0
   -1.3290    1.0261    0.0000 C   0  0  1  0  0  0  0  0  0  0  0  0
   -0.5085    1.1123    0.0000 C   0  0  0  0  0  0  0  0  0  0  0  0
   -0.1729    0.3586    0.0000 N   0  0  0  0  0  0  0  0  0  0  0  0
    0.6340    0.1871    0.0000 C   0  0  0  0  0  0  0  0  0  0  0  0
    0.8890   -0.5975    0.0000 C   0  0  0  0  0  0  0  0  0  0  0  0
    0.4041   -1.2650    0.0000 C   0  0  0  0  0  0  0  0  0  0  0  0
    0.8890   -1.9324    0.0000 N   0  0  0  0  0  0  0  0  0  0  0  0
    2.3881   -2.9150    0.0000 N   0  0  0  0  0  0  0  0  0  0  0  0
    3.1026   -1.6775    0.0000 N   0  0  0  0  0  0  0  0  0  0  0  0
    2.3881   -0.4400    0.0000 N   0  0  0  0  0  0  0  0  0  0  0  0
   -0.7860   -0.1934    0.0000 C   0  0  0  0  0  0  0  0  0  0  0  0
   -1.5005    0.2191    0.0000 C   0  0  2  0  0  0  0  0  0  0  0  0
   -2.2542   -0.1165    0.0000 O   0  0  0  0  0  0  0  0  0  0  0  0
   -1.1197    1.5712    0.0000 H   0  0  0  0  0  0  0  0  0  0  0  0
   -1.9543    0.5866    0.0000 H   0  0  0  0  0  0  0  0  0  0  0  0
  1 16  2  0  0  0  0
  1 17  1  0  0  0  0
  2  3  1  0  0  0  0
  2 12  1  0  0  0  0
  2 17  2  0  0  0  0
  3  4  2  0  0  0  0
  3 14  1  0  0  0  0
  4 15  1  0  0  0  0
  4 16  1  0  0  0  0
  5  6  1  0  0  0  0
  6  7  1  0  0  0  0
  8  7  1  1  0  0  0
  8  9  1  0  0  0  0
  8 19  1  0  0  0  0
  8 21  1  6  0  0  0
  9 10  1  0  0  0  0
 10 11  1  0  0  0  0
 10 18  1  0  0  0  0
 11 12  1  0  0  0  0
 12 13  2  0  0  0  0
 13 14  1  0  0  0  0
 18 19  1  0  0  0  0
 19 20  1  6  0  0  0
 19 22  1  1  0  0  0
M  END
> <DRUGBANK_ID>
DB08606

> <DRUG_GROUPS>
experimental

> <GENERIC_NAME>
(3R,4S)-1-[(4-AMINO-5H-PYRROLO[3,2-D]PYRIMIDIN-7-YL)METHYL]-4-[(METHYLSULFANYL)METHYL]PYRROLIDIN-3-OL

> <CHEMICAL_FORMULA>
C13H19N5OS

> <MOLECULAR_WEIGHT>
293.388

> <EXACT_MASS>
293.131030945

> <IUPAC_NAME>
(3R,4S)-1-({4-amino-5H-pyrrolo[3,2-d]pyrimidin-7-yl}methyl)-4-[(methylsulfanyl)methyl]pyrrolidin-3-ol

> <IUPAC_TRADITIONAL_NAME>
(3R,4S)-1-({4-amino-5H-pyrrolo[3,2-d]pyrimidin-7-yl}methyl)-4-[(methylsulfanyl)methyl]pyrrolidin-3-ol

> <INCHI_IDENTIFIER>
InChI=1S/C13H19N5OS/c1-20-6-9-4-18(5-10(9)19)3-8-2-15-12-11(8)16-7-17-13(12)14/h2,7,9-10,15,19H,3-6H2,1H3,(H2,14,16,17)/t9-,10+/m1/s1

> <INCHI_KEY>
InChIKey=NTHMDFGHOCNNOE-ZJUUUORDSA-N

> <SMILES>
[H][C@]1(O)CN(CC2=CNC3=C(N)N=CN=C23)C[C@]1([H])CSC

> <JCHEM_ACCEPTOR_COUNT>
5

> <JCHEM_DONOR_COUNT>
3

> <JCHEM_ACIDIC_PKA>
13.47

> <JCHEM_BASIC_PKA>
8.71

> <JCHEM_PHYSIOLOGICAL_CHARGE>
1

> <ALOGPS_LOGP>
-0.07

> <JCHEM_LOGP>
0.44

> <ALOGPS_LOGS>
-2.5

> <JCHEM_POLARIZABILITY>
31.34

> <JCHEM_POLAR_SURFACE_AREA>
91.06

> <JCHEM_REFRACTIVITY>
82.52

> <JCHEM_ROTATABLE_BOND_COUNT>
4

> <ALOGPS_SOLUBILITY>
9.96e-01 g/l __ 

$$$$
