TAK
  Mrv0541 02241214122D          

 30 34  0  0  0  0            999 V2000
    2.6933   -0.4916    0.0000 C   0  0  0  0  0  0  0  0  0  0  0  0
    3.4078   -0.0791    0.0000 C   0  0  0  0  0  0  0  0  0  0  0  0
    4.1223   -0.4916    0.0000 C   0  0  0  0  0  0  0  0  0  0  0  0
    4.1223   -1.3166    0.0000 C   0  0  0  0  0  0  0  0  0  0  0  0
    3.4078   -1.7291    0.0000 C   0  0  0  0  0  0  0  0  0  0  0  0
    2.6933   -1.3166    0.0000 N   0  0  0  0  0  0  0  0  0  0  0  0
    1.9788   -1.7291    0.0000 C   0  0  0  0  0  0  0  0  0  0  0  0
    1.2644   -1.3166    0.0000 C   0  0  0  0  0  0  0  0  0  0  0  0
    0.5499   -1.7291    0.0000 O   0  0  0  0  0  0  0  0  0  0  0  0
   -0.1646   -1.3166    0.0000 C   0  0  0  0  0  0  0  0  0  0  0  0
   -0.8790   -1.7291    0.0000 C   0  0  0  0  0  0  0  0  0  0  0  0
   -1.5935   -1.3166    0.0000 C   0  0  0  0  0  0  0  0  0  0  0  0
   -0.1646   -0.4916    0.0000 C   0  0  0  0  0  0  0  0  0  0  0  0
   -0.8790   -0.0791    0.0000 C   0  0  0  0  0  0  0  0  0  0  0  0
   -1.5935   -0.4916    0.0000 C   0  0  0  0  0  0  0  0  0  0  0  0
   -2.3080   -0.0791    0.0000 C   0  0  0  0  0  0  0  0  0  0  0  0
   -3.0225   -0.4916    0.0000 C   0  0  0  0  0  0  0  0  0  0  0  0
   -2.3080    0.7459    0.0000 C   0  0  0  0  0  0  0  0  0  0  0  0
   -3.0225    1.1584    0.0000 N   0  0  0  0  0  0  0  0  0  0  0  0
   -3.7369    0.7459    0.0000 C   0  0  0  0  0  0  0  0  0  0  0  0
   -3.7369   -0.0791    0.0000 N   0  0  0  0  0  0  0  0  0  0  0  0
   -4.5215   -0.3341    0.0000 N   0  0  0  0  0  0  0  0  0  0  0  0
   -5.0065    0.3334    0.0000 C   0  0  0  0  0  0  0  0  0  0  0  0
   -4.5215    1.0008    0.0000 C   0  0  0  0  0  0  0  0  0  0  0  0
   -4.7765    1.7854    0.0000 C   0  0  0  0  0  0  0  0  0  0  0  0
   -5.5835    1.9569    0.0000 C   0  0  0  0  0  0  0  0  0  0  0  0
   -5.8384    2.7416    0.0000 C   0  0  0  0  0  0  0  0  0  0  0  0
   -5.2864    3.3547    0.0000 N   0  0  0  0  0  0  0  0  0  0  0  0
   -4.4794    3.1831    0.0000 C   0  0  0  0  0  0  0  0  0  0  0  0
   -4.2245    2.3985    0.0000 C   0  0  0  0  0  0  0  0  0  0  0  0
  1  2  1  0  0  0  0
  1  6  1  0  0  0  0
  2  3  1  0  0  0  0
  3  4  1  0  0  0  0
  4  5  1  0  0  0  0
  5  6  1  0  0  0  0
  6  7  1  0  0  0  0
  7  8  1  0  0  0  0
  8  9  1  0  0  0  0
  9 10  1  0  0  0  0
 10 11  2  0  0  0  0
 10 13  1  0  0  0  0
 11 12  1  0  0  0  0
 12 15  2  0  0  0  0
 13 14  2  0  0  0  0
 14 15  1  0  0  0  0
 15 16  1  0  0  0  0
 16 17  2  0  0  0  0
 16 18  1  0  0  0  0
 17 21  1  0  0  0  0
 18 19  2  0  0  0  0
 19 20  1  0  0  0  0
 20 21  1  0  0  0  0
 20 24  2  0  0  0  0
 21 22  1  0  0  0  0
 22 23  2  0  0  0  0
 23 24  1  0  0  0  0
 24 25  1  0  0  0  0
 25 26  2  0  0  0  0
 25 30  1  0  0  0  0
 26 27  1  0  0  0  0
 27 28  2  0  0  0  0
 28 29  1  0  0  0  0
 29 30  2  0  0  0  0
M  END
> <DRUGBANK_ID>
DB08597

> <DRUG_GROUPS>
experimental

> <GENERIC_NAME>
6-[4-(2-piperidin-1-ylethoxy)phenyl]-3-pyridin-4-ylpyrazolo[1,5-a]pyrimidine

> <CHEMICAL_FORMULA>
C24H25N5O

> <MOLECULAR_WEIGHT>
399.4882

> <EXACT_MASS>
399.205910447

> <IUPAC_NAME>
4-(6-{4-[2-(piperidin-1-yl)ethoxy]phenyl}pyrazolo[1,5-a]pyrimidin-3-yl)pyridine

> <IUPAC_TRADITIONAL_NAME>
4-(6-{4-[2-(piperidin-1-yl)ethoxy]phenyl}pyrazolo[1,5-a]pyrimidin-3-yl)pyridine

> <INCHI_IDENTIFIER>
InChI=1S/C24H25N5O/c1-2-12-28(13-3-1)14-15-30-22-6-4-19(5-7-22)21-16-26-24-23(17-27-29(24)18-21)20-8-10-25-11-9-20/h4-11,16-18H,1-3,12-15H2

> <INCHI_KEY>
InChIKey=XHBVYDAKJHETMP-UHFFFAOYSA-N

> <SMILES>
C(CN1CCCCC1)OC1=CC=C(C=C1)C1=CN2N=CC(=C2N=C1)C1=CC=NC=C1

> <JCHEM_ACCEPTOR_COUNT>
5

> <JCHEM_DONOR_COUNT>
0

> <JCHEM_BASIC_PKA>
8.81

> <JCHEM_PHYSIOLOGICAL_CHARGE>
1

> <ALOGPS_LOGP>
3.84

> <JCHEM_LOGP>
3.44

> <ALOGPS_LOGS>
-4.4

> <JCHEM_POLARIZABILITY>
45.75

> <JCHEM_POLAR_SURFACE_AREA>
55.55

> <JCHEM_REFRACTIVITY>
128.51

> <JCHEM_ROTATABLE_BOND_COUNT>
6

> <ALOGPS_SOLUBILITY>
1.48e-02 g/l __ 

$$$$
