ZEC
  Mrv0541 02241214182D          

 14 15  0  0  0  0            999 V2000
    2.8148   -0.5244    0.0000 O   0  0  0  0  0  0  0  0  0  0  0  0
    2.1003   -0.1119    0.0000 C   0  0  0  0  0  0  0  0  0  0  0  0
    1.3858   -0.5244    0.0000 C   0  0  0  0  0  0  0  0  0  0  0  0
    0.6714   -0.1119    0.0000 C   0  0  0  0  0  0  0  0  0  0  0  0
   -0.1133   -0.3669    0.0000 S   0  0  0  0  0  0  0  0  0  0  0  0
   -0.5982    0.3006    0.0000 C   0  0  0  0  0  0  0  0  0  0  0  0
   -1.4232    0.3006    0.0000 S   0  0  0  0  0  0  0  0  0  0  0  0
   -2.2482    0.3006    0.0000 N   0  0  0  0  0  0  0  0  0  0  0  0
   -1.4232    1.1256    0.0000 O   0  0  0  0  0  0  0  0  0  0  0  0
   -1.4232   -0.5244    0.0000 O   0  0  0  0  0  0  0  0  0  0  0  0
   -0.1133    0.9680    0.0000 N   0  0  0  0  0  0  0  0  0  0  0  0
    0.6714    0.7131    0.0000 C   0  0  0  0  0  0  0  0  0  0  0  0
    1.3858    1.1256    0.0000 C   0  0  0  0  0  0  0  0  0  0  0  0
    2.1003    0.7131    0.0000 C   0  0  0  0  0  0  0  0  0  0  0  0
  1  2  1  0  0  0  0
  2  3  2  0  0  0  0
  2 14  1  0  0  0  0
  3  4  1  0  0  0  0
  4  5  1  0  0  0  0
  4 12  2  0  0  0  0
  5  6  1  0  0  0  0
  6  7  1  0  0  0  0
  6 11  2  0  0  0  0
  7  8  1  0  0  0  0
  7  9  2  0  0  0  0
  7 10  2  0  0  0  0
 11 12  1  0  0  0  0
 12 13  1  0  0  0  0
 13 14  2  0  0  0  0
M  END
> <DRUGBANK_ID>
DB08765

> <DRUG_GROUPS>
experimental

> <GENERIC_NAME>
6-HYDROXY-1,3-BENZOTHIAZOLE-2-SULFONAMIDE

> <CHEMICAL_FORMULA>
C7H6N2O3S2

> <MOLECULAR_WEIGHT>
230.264

> <EXACT_MASS>
229.981983448

> <IUPAC_NAME>
6-hydroxy-1,3-benzothiazole-2-sulfonamide

> <IUPAC_TRADITIONAL_NAME>
6-hydroxy-1,3-benzothiazole-2-sulfonamide

> <INCHI_IDENTIFIER>
InChI=1S/C7H6N2O3S2/c8-14(11,12)7-9-5-2-1-4(10)3-6(5)13-7/h1-3,10H,(H2,8,11,12)

> <INCHI_KEY>
InChIKey=NOOBQTYVTDBXTL-UHFFFAOYSA-N

> <SMILES>
NS(=O)(=O)C1=NC2=C(S1)C=C(O)C=C2

> <JCHEM_ACCEPTOR_COUNT>
4

> <JCHEM_DONOR_COUNT>
2

> <JCHEM_ACIDIC_PKA>
7.5

> <JCHEM_BASIC_PKA>
-1.9

> <JCHEM_PHYSIOLOGICAL_CHARGE>
0

> <ALOGPS_LOGP>
0.91

> <JCHEM_LOGP>
1.1

> <ALOGPS_LOGS>
-2.3

> <JCHEM_POLARIZABILITY>
20.91

> <JCHEM_POLAR_SURFACE_AREA>
93.28

> <JCHEM_REFRACTIVITY>
50.74

> <JCHEM_ROTATABLE_BOND_COUNT>
1

> <ALOGPS_SOLUBILITY>
1.18e+00 g/l __ 

$$$$
