M5P
  Mrv0541 02241213542D          

 16 16  0  0  0  0            999 V2000
   -2.1738    0.5451    0.0000 C   0  0  0  0  0  0  0  0  0  0  0  0
   -2.5863    1.2596    0.0000 C   0  0  0  0  0  0  0  0  0  0  0  0
   -2.1738    1.9741    0.0000 C   0  0  0  0  0  0  0  0  0  0  0  0
   -1.3488    1.9741    0.0000 C   0  0  0  0  0  0  0  0  0  0  0  0
   -0.9363    1.2596    0.0000 C   0  0  0  0  0  0  0  0  0  0  0  0
   -1.3488    0.5451    0.0000 C   0  0  0  0  0  0  0  0  0  0  0  0
   -0.9363   -0.1694    0.0000 C   0  0  0  0  0  0  0  0  0  0  0  0
   -0.1113   -0.1694    0.0000 C   0  0  0  0  0  0  0  0  0  0  0  0
    0.3012   -0.8838    0.0000 C   0  0  0  0  0  0  0  0  0  0  0  0
    1.1262   -0.8838    0.0000 C   0  0  1  0  0  0  0  0  0  0  0  0
    1.5387   -1.5983    0.0000 C   0  0  0  0  0  0  0  0  0  0  0  0
    2.3637   -1.5983    0.0000 O   0  0  0  0  0  0  0  0  0  0  0  0
    1.1262   -2.3128    0.0000 O   0  0  0  0  0  0  0  0  0  0  0  0
    1.5387   -0.1694    0.0000 C   0  0  0  0  0  0  0  0  0  0  0  0
    2.3637   -0.1694    0.0000 S   0  0  0  0  0  0  0  0  0  0  0  0
    0.8342   -1.3895    0.0000 H   0  0  0  0  0  0  0  0  0  0  0  0
  1  2  1  0  0  0  0
  1  6  2  0  0  0  0
  2  3  2  0  0  0  0
  3  4  1  0  0  0  0
  4  5  2  0  0  0  0
  5  6  1  0  0  0  0
  6  7  1  0  0  0  0
  7  8  1  0  0  0  0
  8  9  1  0  0  0  0
  9 10  1  0  0  0  0
 10 11  1  0  0  0  0
 10 14  1  1  0  0  0
 10 16  1  1  0  0  0
 11 12  2  0  0  0  0
 11 13  1  0  0  0  0
 14 15  1  0  0  0  0
M  END
> <DRUGBANK_ID>
DB08161

> <DRUG_GROUPS>
experimental

> <GENERIC_NAME>
(S)-2-(MERCAPTOMETHYL)-5-PHENYLPENTANOIC ACID

> <CHEMICAL_FORMULA>
C12H16O2S

> <MOLECULAR_WEIGHT>
224.319

> <EXACT_MASS>
224.087100446

> <IUPAC_NAME>
(2S)-5-phenyl-2-(sulfanylmethyl)pentanoic acid

> <IUPAC_TRADITIONAL_NAME>
(2S)-5-phenyl-2-(sulfanylmethyl)pentanoic acid

> <INCHI_IDENTIFIER>
InChI=1S/C12H16O2S/c13-12(14)11(9-15)8-4-7-10-5-2-1-3-6-10/h1-3,5-6,11,15H,4,7-9H2,(H,13,14)/t11-/m1/s1

> <INCHI_KEY>
InChIKey=HEPZYEZEUMVYDV-LLVKDONJSA-N

> <SMILES>
[H][C@](CS)(CCCC1=CC=CC=C1)C(O)=O

> <JCHEM_ACCEPTOR_COUNT>
2

> <JCHEM_DONOR_COUNT>
2

> <JCHEM_ACIDIC_PKA>
4.81

> <JCHEM_BASIC_PKA>
-9.6

> <JCHEM_PHYSIOLOGICAL_CHARGE>
-1

> <ALOGPS_LOGP>
3.21

> <JCHEM_LOGP>
3.46

> <ALOGPS_LOGS>
-3.7

> <JCHEM_POLARIZABILITY>
24.84

> <JCHEM_POLAR_SURFACE_AREA>
37.3

> <JCHEM_REFRACTIVITY>
63.55

> <JCHEM_ROTATABLE_BOND_COUNT>
6

> <ALOGPS_SOLUBILITY>
4.44e-02 g/l __ 

$$$$
