
  Mrv0541 06011315502D          

363376  0  0  1  0            999 V2000
   -8.2748   -4.4105    0.0000 N   0  0  0  0  0  0  0  0  0  0  0  0
   -7.5604   -5.6480    0.0000 O   0  0  0  0  0  0  0  0  0  0  0  0
   -6.8458   -4.4105    0.0000 C   0  0  0  0  0  0  0  0  0  0  0  0
   -7.5604   -4.8230    0.0000 C   0  0  0  0  0  0  0  0  0  0  0  0
   -6.8458   -3.5855    0.0000 N   0  0  0  0  0  0  0  0  0  0  0  0
   -6.1314   -3.1730    0.0000 C   0  0  0  0  0  0  0  0  0  0  0  0
   -5.4168   -3.5857    0.0000 C   0  0  1  0  0  0  0  0  0  0  0  0
   -4.7024   -3.1730    0.0000 N   0  0  0  0  0  0  0  0  0  0  0  0
   -5.3874   -4.3811    0.0000 C   0  0  0  0  0  0  0  0  0  0  0  0
   -6.1314   -2.3480    0.0000 O   0  0  0  0  0  0  0  0  0  0  0  0
   -3.2734   -3.1730    0.0000 C   0  0  2  0  0  0  0  0  0  0  0  0
   -3.9880   -3.5855    0.0000 C   0  0  0  0  0  0  0  0  0  0  0  0
   -3.2734   -2.3480    0.0000 C   0  0  0  0  0  0  0  0  0  0  0  0
   -2.5590   -3.5855    0.0000 N   0  0  0  0  0  0  0  0  0  0  0  0
   -3.9880   -4.4105    0.0000 O   0  0  0  0  0  0  0  0  0  0  0  0
   -2.5590   -4.4105    0.0000 C   0  0  0  0  0  0  0  0  0  0  0  0
   -1.8445   -4.8230    0.0000 C   0  0  1  0  0  0  0  0  0  0  0  0
   -1.1300   -4.4105    0.0000 N   0  0  0  0  0  0  0  0  0  0  0  0
   -0.4156   -5.6480    0.0000 O   0  0  0  0  0  0  0  0  0  0  0  0
    0.2990   -4.4105    0.0000 C   0  0  1  0  0  0  0  0  0  0  0  0
   -0.4156   -4.8524    0.0000 C   0  0  0  0  0  0  0  0  0  0  0  0
    1.0134   -4.8230    0.0000 N   0  0  0  0  0  0  0  0  0  0  0  0
    1.7279   -3.5855    0.0000 O   0  0  0  0  0  0  0  0  0  0  0  0
    3.1569   -4.4105    0.0000 N   0  0  0  0  0  0  0  0  0  0  0  0
    2.4424   -4.8230    0.0000 C   0  0  2  0  0  0  0  0  0  0  0  0
    1.7279   -4.3811    0.0000 C   0  0  0  0  0  0  0  0  0  0  0  0
    2.4424   -5.6480    0.0000 C   0  0  0  0  0  0  0  0  0  0  0  0
   -3.2734   -4.8230    0.0000 O   0  0  0  0  0  0  0  0  0  0  0  0
   -1.8445   -5.6480    0.0000 C   0  0  0  0  0  0  0  0  0  0  0  0
   -2.5589   -6.0605    0.0000 S   0  0  0  0  0  0  0  0  0  0  0  0
    0.2866   -3.5855    0.0000 C   0  0  0  0  0  0  0  0  0  0  0  0
    1.7280   -6.0605    0.0000 C   0  0  0  0  0  0  0  0  0  0  0  0
    1.0134   -5.6480    0.0000 C   0  0  0  0  0  0  0  0  0  0  0  0
    1.7279   -6.8855    0.0000 C   0  0  0  0  0  0  0  0  0  0  0  0
    0.2990   -6.0605    0.0000 C   0  0  0  0  0  0  0  0  0  0  0  0
    1.0134   -7.2980    0.0000 C   0  0  0  0  0  0  0  0  0  0  0  0
    0.2990   -6.8855    0.0000 C   0  0  0  0  0  0  0  0  0  0  0  0
   -0.4155   -7.2980    0.0000 O   0  0  0  0  0  0  0  0  0  0  0  0
    3.8713   -5.6480    0.0000 O   0  0  0  0  0  0  0  0  0  0  0  0
    5.3003   -4.8230    0.0000 N   0  0  0  0  0  0  0  0  0  0  0  0
    4.5859   -4.4105    0.0000 C   0  0  2  0  0  0  0  0  0  0  0  0
    3.8713   -4.8524    0.0000 C   0  0  0  0  0  0  0  0  0  0  0  0
    4.5859   -3.5855    0.0000 C   0  0  0  0  0  0  0  0  0  0  0  0
    3.8713   -3.1730    0.0000 C   0  0  0  0  0  0  0  0  0  0  0  0
    3.1570   -3.5855    0.0000 C   0  0  0  0  0  0  0  0  0  0  0  0
    3.8715   -2.3480    0.0000 C   0  0  0  0  0  0  0  0  0  0  0  0
    6.0149   -3.5855    0.0000 O   0  0  0  0  0  0  0  0  0  0  0  0
    7.4438   -4.4105    0.0000 N   0  0  0  0  0  0  0  0  0  0  0  0
    6.7294   -4.8230    0.0000 C   0  0  0  0  0  0  0  0  0  0  0  0
    6.0149   -4.3811    0.0000 C   0  0  0  0  0  0  0  0  0  0  0  0
    8.1584   -5.6480    0.0000 O   0  0  0  0  0  0  0  0  0  0  0  0
    9.5873   -4.8230    0.0000 N   0  0  0  0  0  0  0  0  0  0  0  0
    8.8728   -4.4105    0.0000 C   0  0  0  0  0  0  0  0  0  0  0  0
    8.1584   -4.8524    0.0000 C   0  0  0  0  0  0  0  0  0  0  0  0
   10.3150   -4.4029    0.0000 C   0  0  0  0  0  0  0  0  0  0  0  0
   11.0424   -4.8230    0.0000 C   0  0  0  0  0  0  0  0  0  0  0  0
   10.3150   -3.5628    0.0000 O   0  0  0  0  0  0  0  0  0  0  0  0
   -3.9878   -1.9355    0.0000 C   0  0  0  0  0  0  0  0  0  0  0  0
   -4.0741   -1.1150    0.0000 C   0  0  0  0  0  0  0  0  0  0  0  0
   -4.7416   -2.2710    0.0000 N   0  0  0  0  0  0  0  0  0  0  0  0
   -4.8811   -0.9434    0.0000 N   0  0  0  0  0  0  0  0  0  0  0  0
   -5.2936   -1.6578    0.0000 C   0  0  0  0  0  0  0  0  0  0  0  0
   -4.6581   -4.7668    0.0000 C   0  0  0  0  0  0  0  0  0  0  0  0
   -4.6572   -5.5918    0.0000 S   0  0  0  0  0  0  0  0  0  0  0  0
   -3.9423   -6.0035    0.0000 C   0  0  0  0  0  0  0  0  0  0  0  0
   -8.9423   -5.7204    0.0000 C   0  0  0  0  0  0  0  0  0  0  0  0
   -9.6567   -6.1329    0.0000 N   0  0  0  0  0  0  0  0  0  0  0  0
   -8.9423   -4.8954    0.0000 C   0  0  2  0  0  0  0  0  0  0  0  0
   -8.5298   -3.6258    0.0000 C   0  0  0  0  0  0  0  0  0  0  0  0
   -9.3548   -3.6258    0.0000 C   0  0  0  0  0  0  0  0  0  0  0  0
   -9.6097   -4.4105    0.0000 C   0  0  0  0  0  0  0  0  0  0  0  0
   -8.2278   -6.1329    0.0000 O   0  0  0  0  0  0  0  0  0  0  0  0
   -9.6567   -6.9579    0.0000 C   0  0  2  0  0  0  0  0  0  0  0  0
   -8.9420   -7.3704    0.0000 C   0  0  0  0  0  0  0  0  0  0  0  0
  -10.3711   -7.3705    0.0000 C   0  0  1  0  0  0  0  0  0  0  0  0
  -10.3710   -8.1955    0.0000 C   0  0  0  0  0  0  0  0  0  0  0  0
  -11.0857   -6.9581    0.0000 C   0  0  0  0  0  0  0  0  0  0  0  0
  -11.8001   -7.3707    0.0000 C   0  0  0  0  0  0  0  0  0  0  0  0
   -8.2276   -6.9578    0.0000 N   0  0  0  0  0  0  0  0  0  0  0  0
   -6.7985   -8.6076    0.0000 N   0  0  0  0  0  0  0  0  0  0  0  0
   -7.5132   -7.3702    0.0000 C   0  0  2  0  0  0  0  0  0  0  0  0
   -6.0842   -7.3701    0.0000 C   0  0  0  0  0  0  0  0  0  0  0  0
   -7.5131   -8.1952    0.0000 C   0  0  0  0  0  0  0  0  0  0  0  0
   -6.7987   -6.9576    0.0000 C   0  0  1  0  0  0  0  0  0  0  0  0
   -6.7987   -6.1326    0.0000 O   0  0  0  0  0  0  0  0  0  0  0  0
   -3.9403   -8.6075    0.0000 N   0  0  0  0  0  0  0  0  0  0  0  0
   -5.3693   -9.4325    0.0000 N   0  0  0  0  0  0  0  0  0  0  0  0
   -4.6548   -9.8450    0.0000 C   0  0  2  0  0  0  0  0  0  0  0  0
   -3.9403   -9.4031    0.0000 C   0  0  0  0  0  0  0  0  0  0  0  0
   -4.6548  -10.6700    0.0000 C   0  0  0  0  0  0  0  0  0  0  0  0
   -6.0836  -10.6700    0.0000 O   0  0  0  0  0  0  0  0  0  0  0  0
   -6.7983   -9.4326    0.0000 C   0  0  2  0  0  0  0  0  0  0  0  0
   -6.0836   -9.8450    0.0000 C   0  0  0  0  0  0  0  0  0  0  0  0
   -7.5127   -9.8452    0.0000 C   0  0  0  0  0  0  0  0  0  0  0  0
   -3.9403  -11.0825    0.0000 C   0  0  0  0  0  0  0  0  0  0  0  0
   -7.5126  -10.6702    0.0000 C   0  0  0  0  0  0  0  0  0  0  0  0
   -8.2270  -11.0829    0.0000 C   0  0  0  0  0  0  0  0  0  0  0  0
   -6.7980  -11.0827    0.0000 C   0  0  0  0  0  0  0  0  0  0  0  0
   -8.2268  -11.9079    0.0000 C   0  0  0  0  0  0  0  0  0  0  0  0
   -6.7979  -11.9076    0.0000 C   0  0  0  0  0  0  0  0  0  0  0  0
   -7.5123  -12.3202    0.0000 C   0  0  0  0  0  0  0  0  0  0  0  0
   -9.6560  -11.0829    0.0000 C   0  0  0  0  0  0  0  0  0  0  0  0
   -9.6560  -11.9079    0.0000 C   0  0  0  0  0  0  0  0  0  0  0  0
   -8.9414  -10.6704    0.0000 C   0  0  0  0  0  0  0  0  0  0  0  0
   -8.9414  -12.3204    0.0000 C   0  0  0  0  0  0  0  0  0  0  0  0
   -8.2275   -8.6079    0.0000 O   0  0  0  0  0  0  0  0  0  0  0  0
   -5.3693  -11.0825    0.0000 C   0  0  0  0  0  0  0  0  0  0  0  0
   -2.5112   -9.4325    0.0000 N   0  0  0  0  0  0  0  0  0  0  0  0
   -1.7969   -8.1950    0.0000 O   0  0  0  0  0  0  0  0  0  0  0  0
   -3.2553   -8.1361    0.0000 C   0  0  2  0  0  0  0  0  0  0  0  0
   -2.5112   -8.6075    0.0000 C   0  0  0  0  0  0  0  0  0  0  0  0
   -3.2553   -7.3111    0.0000 C   0  0  0  0  0  0  0  0  0  0  0  0
   -2.5408   -6.8986    0.0000 S   0  0  0  0  0  0  0  0  0  0  0  0
   -3.2197   -9.8047    0.0000 O   0  0  0  0  0  0  0  0  0  0  0  0
   -1.0822   -9.4325    0.0000 C   0  0  0  0  0  0  0  0  0  0  0  0
   -2.5112  -11.9075    0.0000 C   0  0  0  0  0  0  0  0  0  0  0  0
   -0.3678   -9.8450    0.0000 N   0  0  0  0  0  0  0  0  0  0  0  0
   -1.7968   -9.8450    0.0000 C   0  0  2  0  0  0  0  0  0  0  0  0
   -3.2257  -12.3200    0.0000 O   0  0  0  0  0  0  0  0  0  0  0  0
   -1.7968  -10.6700    0.0000 C   0  0  0  0  0  0  0  0  0  0  0  0
   -2.5112  -11.0825    0.0000 C   0  0  0  0  0  0  0  0  0  0  0  0
   -1.7968  -12.3200    0.0000 N   0  0  0  0  0  0  0  0  0  0  0  0
   -1.0822   -8.6075    0.0000 O   0  0  0  0  0  0  0  0  0  0  0  0
    0.2996   -8.5352    0.0000 C   0  0  0  0  0  0  0  0  0  0  0  0
    1.0141   -8.1227    0.0000 N   0  0  0  0  0  0  0  0  0  0  0  0
    0.2996   -9.3602    0.0000 C   0  0  2  0  0  0  0  0  0  0  0  0
   -0.1128  -10.6297    0.0000 C   0  0  0  0  0  0  0  0  0  0  0  0
    0.7122  -10.6297    0.0000 C   0  0  0  0  0  0  0  0  0  0  0  0
    0.9671   -9.8450    0.0000 C   0  0  0  0  0  0  0  0  0  0  0  0
   -0.4149   -8.1227    0.0000 O   0  0  0  0  0  0  0  0  0  0  0  0
    2.4430   -7.2977    0.0000 O   0  0  0  0  0  0  0  0  0  0  0  0
    1.7286   -8.5352    0.0000 C   0  0  2  0  0  0  0  0  0  0  0  0
    2.4430   -8.0933    0.0000 C   0  0  0  0  0  0  0  0  0  0  0  0
    1.7286   -9.3602    0.0000 C   0  0  0  0  0  0  0  0  0  0  0  0
    2.4430   -9.7727    0.0000 C   0  0  0  0  0  0  0  0  0  0  0  0
    3.1576   -9.3602    0.0000 C   0  0  0  0  0  0  0  0  0  0  0  0
    2.4430  -10.5977    0.0000 C   0  0  0  0  0  0  0  0  0  0  0  0
    6.7301   -7.2974    0.0000 C   0  0  0  0  0  0  0  0  0  0  0  0
    4.5866   -8.5352    0.0000 C   0  0  0  0  0  0  0  0  0  0  0  0
    7.4445   -6.8849    0.0000 N   0  0  0  0  0  0  0  0  0  0  0  0
    5.3010   -8.1226    0.0000 O   0  0  0  0  0  0  0  0  0  0  0  0
    6.0155   -6.8850    0.0000 N   0  0  0  0  0  0  0  0  0  0  0  0
    3.8721   -8.1227    0.0000 C   0  0  1  0  0  0  0  0  0  0  0  0
    6.7301   -8.1225    0.0000 N   0  0  0  0  0  0  0  0  0  0  0  0
    3.1576   -8.5352    0.0000 N   0  0  0  0  0  0  0  0  0  0  0  0
    5.3011   -7.2975    0.0000 C   0  0  0  0  0  0  0  0  0  0  0  0
    3.8721   -7.2977    0.0000 C   0  0  0  0  0  0  0  0  0  0  0  0
    4.5866   -6.8851    0.0000 C   0  0  0  0  0  0  0  0  0  0  0  0
    4.6365  -11.0095    0.0000 O   0  0  0  0  0  0  0  0  0  0  0  0
    5.3130   -9.7508    0.0000 C   0  0  0  0  0  0  0  0  0  0  0  0
    5.3130  -10.5911    0.0000 C   0  0  0  0  0  0  0  0  0  0  0  0
    4.5866   -9.3602    0.0000 N   0  0  0  0  0  0  0  0  0  0  0  0
    6.0647  -10.9663    0.0000 N   0  0  0  0  0  0  0  0  0  0  0  0
    5.3501  -12.2038    0.0000 C   0  0  0  0  0  0  0  0  0  0  0  0
    8.2080  -12.2038    0.0000 C   0  0  0  0  0  0  0  0  0  0  0  0
    5.3501  -13.0288    0.0000 N   0  0  0  0  0  0  0  0  0  0  0  0
    6.0647  -11.7913    0.0000 C   0  0  2  0  0  0  0  0  0  0  0  0
    6.7791  -12.2037    0.0000 C   0  0  0  0  0  0  0  0  0  0  0  0
    7.4935  -11.7913    0.0000 C   0  0  0  0  0  0  0  0  0  0  0  0
    4.6357  -11.7913    0.0000 O   0  0  0  0  0  0  0  0  0  0  0  0
    3.8784   -9.7834    0.0000 C   0  0  0  0  0  0  0  0  0  0  0  0
    8.9226  -11.7913    0.0000 C   0  0  0  0  0  0  0  0  0  0  0  0
    9.6370  -12.2038    0.0000 N   0  0  0  0  0  0  0  0  0  0  0  0
   10.3514  -11.7913    0.0000 C   0  0  0  0  0  0  0  0  0  0  0  0
   11.0660  -12.2038    0.0000 C   0  0  0  0  0  0  0  0  0  0  0  0
   10.3514  -10.9663    0.0000 O   0  0  0  0  0  0  0  0  0  0  0  0
   11.0660  -13.0288    0.0000 N   0  0  0  0  0  0  0  0  0  0  0  0
   10.3514  -13.4413    0.0000 C   0  0  0  0  0  0  0  0  0  0  0  0
   10.3514  -14.2663    0.0000 C   0  0  0  0  0  0  0  0  0  0  0  0
   11.0660  -14.6788    0.0000 O   0  0  0  0  0  0  0  0  0  0  0  0
   -8.2580  -22.5105    0.0000 N   0  0  0  0  0  0  0  0  0  0  0  0
   -7.5463  -21.2716    0.0000 O   0  0  0  0  0  0  0  0  0  0  0  0
   -6.8290  -22.5076    0.0000 C   0  0  0  0  0  0  0  0  0  0  0  0
   -7.5445  -22.0965    0.0000 C   0  0  0  0  0  0  0  0  0  0  0  0
   -6.8272  -23.3326    0.0000 N   0  0  0  0  0  0  0  0  0  0  0  0
   -6.1119  -23.7434    0.0000 C   0  0  0  0  0  0  0  0  0  0  0  0
   -5.3982  -23.3292    0.0000 C   0  0  1  0  0  0  0  0  0  0  0  0
   -4.6829  -23.7403    0.0000 N   0  0  0  0  0  0  0  0  0  0  0  0
   -5.3705  -22.5337    0.0000 C   0  0  0  0  0  0  0  0  0  0  0  0
   -6.1101  -24.5684    0.0000 O   0  0  0  0  0  0  0  0  0  0  0  0
   -3.2540  -23.7374    0.0000 C   0  0  2  0  0  0  0  0  0  0  0  0
   -3.9694  -23.3264    0.0000 C   0  0  0  0  0  0  0  0  0  0  0  0
   -3.2522  -24.5624    0.0000 C   0  0  0  0  0  0  0  0  0  0  0  0
   -2.5404  -23.3233    0.0000 N   0  0  0  0  0  0  0  0  0  0  0  0
   -3.9712  -22.5014    0.0000 O   0  0  0  0  0  0  0  0  0  0  0  0
   -2.5422  -22.4983    0.0000 C   0  0  0  0  0  0  0  0  0  0  0  0
   -1.8286  -22.0843    0.0000 C   0  0  1  0  0  0  0  0  0  0  0  0
   -1.1132  -22.4952    0.0000 N   0  0  0  0  0  0  0  0  0  0  0  0
   -0.4015  -21.2562    0.0000 O   0  0  0  0  0  0  0  0  0  0  0  0
    0.3158  -22.4921    0.0000 C   0  0  1  0  0  0  0  0  0  0  0  0
   -0.3998  -22.0518    0.0000 C   0  0  0  0  0  0  0  0  0  0  0  0
    1.0293  -22.0781    0.0000 N   0  0  0  0  0  0  0  0  0  0  0  0
    1.7464  -23.3140    0.0000 O   0  0  0  0  0  0  0  0  0  0  0  0
    3.1737  -22.4860    0.0000 N   0  0  0  0  0  0  0  0  0  0  0  0
    2.4582  -22.0750    0.0000 C   0  0  2  0  0  0  0  0  0  0  0  0
    1.7447  -22.5184    0.0000 C   0  0  0  0  0  0  0  0  0  0  0  0
    2.4564  -21.2500    0.0000 C   0  0  0  0  0  0  0  0  0  0  0  0
   -3.2575  -22.0874    0.0000 O   0  0  0  0  0  0  0  0  0  0  0  0
   -1.8304  -21.2593    0.0000 C   0  0  0  0  0  0  0  0  0  0  0  0
   -2.5456  -20.8483    0.0000 S   0  0  0  0  0  0  0  0  0  0  0  0
    0.3051  -23.3171    0.0000 C   0  0  0  0  0  0  0  0  0  0  0  0
    1.7412  -20.8391    0.0000 C   0  0  0  0  0  0  0  0  0  0  0  0
    1.0276  -21.2531    0.0000 C   0  0  0  0  0  0  0  0  0  0  0  0
    1.7394  -20.0141    0.0000 C   0  0  0  0  0  0  0  0  0  0  0  0
    0.3122  -20.8421    0.0000 C   0  0  0  0  0  0  0  0  0  0  0  0
    1.0240  -19.6031    0.0000 C   0  0  0  0  0  0  0  0  0  0  0  0
    0.3104  -20.0172    0.0000 C   0  0  0  0  0  0  0  0  0  0  0  0
   -0.4049  -19.6062    0.0000 O   0  0  0  0  0  0  0  0  0  0  0  0
    3.8855  -21.2469    0.0000 O   0  0  0  0  0  0  0  0  0  0  0  0
    5.3163  -22.0688    0.0000 N   0  0  0  0  0  0  0  0  0  0  0  0
    4.6027  -22.4829    0.0000 C   0  0  2  0  0  0  0  0  0  0  0  0
    3.8872  -22.0425    0.0000 C   0  0  0  0  0  0  0  0  0  0  0  0
    4.6045  -23.3079    0.0000 C   0  0  0  0  0  0  0  0  0  0  0  0
    3.8908  -23.7219    0.0000 C   0  0  0  0  0  0  0  0  0  0  0  0
    3.1755  -23.3110    0.0000 C   0  0  0  0  0  0  0  0  0  0  0  0
    3.8927  -24.5469    0.0000 C   0  0  0  0  0  0  0  0  0  0  0  0
    6.0335  -23.3048    0.0000 O   0  0  0  0  0  0  0  0  0  0  0  0
    7.4606  -22.4767    0.0000 N   0  0  0  0  0  0  0  0  0  0  0  0
    6.7453  -22.0658    0.0000 C   0  0  0  0  0  0  0  0  0  0  0  0
    6.0317  -22.5092    0.0000 C   0  0  0  0  0  0  0  0  0  0  0  0
    8.1724  -21.2377    0.0000 O   0  0  0  0  0  0  0  0  0  0  0  0
    9.6032  -22.0596    0.0000 N   0  0  0  0  0  0  0  0  0  0  0  0
    8.8896  -22.4738    0.0000 C   0  0  0  0  0  0  0  0  0  0  0  0
    8.1741  -22.0333    0.0000 C   0  0  0  0  0  0  0  0  0  0  0  0
   10.3316  -22.4782    0.0000 C   0  0  0  0  0  0  0  0  0  0  0  0
   11.0583  -22.0567    0.0000 C   0  0  0  0  0  0  0  0  0  0  0  0
   10.3334  -23.3184    0.0000 O   0  0  0  0  0  0  0  0  0  0  0  0
   -3.9658  -24.9764    0.0000 C   0  0  0  0  0  0  0  0  0  0  0  0
   -4.0502  -25.7970    0.0000 C   0  0  0  0  0  0  0  0  0  0  0  0
   -4.7202  -24.6424    0.0000 N   0  0  0  0  0  0  0  0  0  0  0  0
   -4.8569  -25.9703    0.0000 N   0  0  0  0  0  0  0  0  0  0  0  0
   -5.2709  -25.2568    0.0000 C   0  0  0  0  0  0  0  0  0  0  0  0
   -4.6421  -22.1464    0.0000 C   0  0  0  0  0  0  0  0  0  0  0  0
   -4.6430  -21.3214    0.0000 S   0  0  0  0  0  0  0  0  0  0  0  0
   -3.9289  -20.9082    0.0000 C   0  0  0  0  0  0  0  0  0  0  0  0
   -8.9283  -21.2021    0.0000 C   0  0  0  0  0  0  0  0  0  0  0  0
   -9.6435  -20.7911    0.0000 N   0  0  0  0  0  0  0  0  0  0  0  0
   -8.9265  -22.0271    0.0000 C   0  0  2  0  0  0  0  0  0  0  0  0
   -8.5113  -23.2957    0.0000 C   0  0  0  0  0  0  0  0  0  0  0  0
   -9.3362  -23.2975    0.0000 C   0  0  0  0  0  0  0  0  0  0  0  0
   -9.5929  -22.5135    0.0000 C   0  0  0  0  0  0  0  0  0  0  0  0
   -8.2147  -20.7880    0.0000 O   0  0  0  0  0  0  0  0  0  0  0  0
   -9.6453  -19.9661    0.0000 C   0  0  2  0  0  0  0  0  0  0  0  0
   -8.9317  -19.5521    0.0000 C   0  0  0  0  0  0  0  0  0  0  0  0
  -10.3607  -19.5551    0.0000 C   0  0  1  0  0  0  0  0  0  0  0  0
  -10.3623  -18.7301    0.0000 C   0  0  0  0  0  0  0  0  0  0  0  0
  -11.0744  -19.9690    0.0000 C   0  0  0  0  0  0  0  0  0  0  0  0
  -11.7897  -19.5580    0.0000 C   0  0  0  0  0  0  0  0  0  0  0  0
   -8.2164  -19.9632    0.0000 N   0  0  0  0  0  0  0  0  0  0  0  0
   -6.7907  -18.3102    0.0000 N   0  0  0  0  0  0  0  0  0  0  0  0
   -7.5028  -19.5492    0.0000 C   0  0  2  0  0  0  0  0  0  0  0  0
   -6.0738  -19.5463    0.0000 C   0  0  0  0  0  0  0  0  0  0  0  0
   -7.5044  -18.7242    0.0000 C   0  0  0  0  0  0  0  0  0  0  0  0
   -6.7874  -19.9602    0.0000 C   0  0  1  0  0  0  0  0  0  0  0  0
   -6.7857  -20.7852    0.0000 O   0  0  0  0  0  0  0  0  0  0  0  0
   -3.9325  -18.3042    0.0000 N   0  0  0  0  0  0  0  0  0  0  0  0
   -5.3633  -17.4823    0.0000 N   0  0  0  0  0  0  0  0  0  0  0  0
   -4.6497  -17.0683    0.0000 C   0  0  2  0  0  0  0  0  0  0  0  0
   -3.9342  -17.5086    0.0000 C   0  0  0  0  0  0  0  0  0  0  0  0
   -4.6515  -16.2433    0.0000 C   0  0  0  0  0  0  0  0  0  0  0  0
   -6.0803  -16.2464    0.0000 O   0  0  0  0  0  0  0  0  0  0  0  0
   -6.7923  -17.4852    0.0000 C   0  0  2  0  0  0  0  0  0  0  0  0
   -6.0785  -17.0713    0.0000 C   0  0  0  0  0  0  0  0  0  0  0  0
   -7.5076  -17.0742    0.0000 C   0  0  0  0  0  0  0  0  0  0  0  0
   -3.9378  -15.8292    0.0000 C   0  0  0  0  0  0  0  0  0  0  0  0
   -7.5093  -16.2492    0.0000 C   0  0  0  0  0  0  0  0  0  0  0  0
   -8.2245  -15.8381    0.0000 C   0  0  0  0  0  0  0  0  0  0  0  0
   -6.7956  -15.8352    0.0000 C   0  0  0  0  0  0  0  0  0  0  0  0
   -8.2261  -15.0132    0.0000 C   0  0  0  0  0  0  0  0  0  0  0  0
   -6.7972  -15.0103    0.0000 C   0  0  0  0  0  0  0  0  0  0  0  0
   -7.5125  -14.5992    0.0000 C   0  0  0  0  0  0  0  0  0  0  0  0
   -9.6535  -15.8412    0.0000 C   0  0  0  0  0  0  0  0  0  0  0  0
   -9.6553  -15.0162    0.0000 C   0  0  0  0  0  0  0  0  0  0  0  0
   -8.9381  -16.2522    0.0000 C   0  0  0  0  0  0  0  0  0  0  0  0
   -8.9417  -14.6022    0.0000 C   0  0  0  0  0  0  0  0  0  0  0  0
   -8.2197  -18.3130    0.0000 O   0  0  0  0  0  0  0  0  0  0  0  0
   -5.3668  -15.8323    0.0000 C   0  0  0  0  0  0  0  0  0  0  0  0
   -2.5053  -17.4762    0.0000 N   0  0  0  0  0  0  0  0  0  0  0  0
   -1.7883  -18.7121    0.0000 O   0  0  0  0  0  0  0  0  0  0  0  0
   -3.2465  -18.7742    0.0000 C   0  0  2  0  0  0  0  0  0  0  0  0
   -2.5035  -18.3012    0.0000 C   0  0  0  0  0  0  0  0  0  0  0  0
   -3.2447  -19.5992    0.0000 C   0  0  0  0  0  0  0  0  0  0  0  0
   -2.5294  -20.0102    0.0000 S   0  0  0  0  0  0  0  0  0  0  0  0
   -3.2145  -17.1055    0.0000 O   0  0  0  0  0  0  0  0  0  0  0  0
   -1.0763  -17.4731    0.0000 C   0  0  0  0  0  0  0  0  0  0  0  0
   -2.5106  -15.0012    0.0000 C   0  0  0  0  0  0  0  0  0  0  0  0
   -0.3627  -17.0590    0.0000 N   0  0  0  0  0  0  0  0  0  0  0  0
   -1.7917  -17.0621    0.0000 C   0  0  2  0  0  0  0  0  0  0  0  0
   -3.2259  -14.5903    0.0000 O   0  0  0  0  0  0  0  0  0  0  0  0
   -1.7935  -16.2371    0.0000 C   0  0  0  0  0  0  0  0  0  0  0  0
   -2.5088  -15.8262    0.0000 C   0  0  0  0  0  0  0  0  0  0  0  0
   -1.7970  -14.5871    0.0000 N   0  0  0  0  0  0  0  0  0  0  0  0
   -1.0745  -18.2981    0.0000 O   0  0  0  0  0  0  0  0  0  0  0  0
    0.3075  -18.3674    0.0000 C   0  0  0  0  0  0  0  0  0  0  0  0
    1.0229  -18.7784    0.0000 N   0  0  0  0  0  0  0  0  0  0  0  0
    0.3057  -17.5424    0.0000 C   0  0  2  0  0  0  0  0  0  0  0  0
   -0.1094  -16.2739    0.0000 C   0  0  0  0  0  0  0  0  0  0  0  0
    0.7156  -16.2721    0.0000 C   0  0  0  0  0  0  0  0  0  0  0  0
    0.9721  -17.0562    0.0000 C   0  0  0  0  0  0  0  0  0  0  0  0
   -0.4061  -18.7815    0.0000 O   0  0  0  0  0  0  0  0  0  0  0  0
    2.4537  -19.6003    0.0000 O   0  0  0  0  0  0  0  0  0  0  0  0
    1.7365  -18.3643    0.0000 C   0  0  2  0  0  0  0  0  0  0  0  0
    2.4520  -18.8047    0.0000 C   0  0  0  0  0  0  0  0  0  0  0  0
    1.7347  -17.5394    0.0000 C   0  0  0  0  0  0  0  0  0  0  0  0
    2.4483  -17.1253    0.0000 C   0  0  0  0  0  0  0  0  0  0  0  0
    3.1637  -17.5364    0.0000 C   0  0  0  0  0  0  0  0  0  0  0  0
    2.4465  -16.3003    0.0000 C   0  0  0  0  0  0  0  0  0  0  0  0
    6.7407  -19.5913    0.0000 C   0  0  0  0  0  0  0  0  0  0  0  0
    4.5944  -18.3583    0.0000 C   0  0  0  0  0  0  0  0  0  0  0  0
    7.4559  -20.0024    0.0000 N   0  0  0  0  0  0  0  0  0  0  0  0
    5.3098  -18.7693    0.0000 O   0  0  0  0  0  0  0  0  0  0  0  0
    6.0270  -20.0053    0.0000 N   0  0  0  0  0  0  0  0  0  0  0  0
    3.8808  -18.7722    0.0000 C   0  0  1  0  0  0  0  0  0  0  0  0
    6.7389  -18.7663    0.0000 N   0  0  0  0  0  0  0  0  0  0  0  0
    3.1654  -18.3614    0.0000 N   0  0  0  0  0  0  0  0  0  0  0  0
    5.3117  -19.5944    0.0000 C   0  0  0  0  0  0  0  0  0  0  0  0
    3.8826  -19.5972    0.0000 C   0  0  0  0  0  0  0  0  0  0  0  0
    4.5981  -20.0084    0.0000 C   0  0  0  0  0  0  0  0  0  0  0  0
    4.6390  -15.8839    0.0000 O   0  0  0  0  0  0  0  0  0  0  0  0
    5.3184  -17.1410    0.0000 C   0  0  0  0  0  0  0  0  0  0  0  0
    5.3166  -16.3008    0.0000 C   0  0  0  0  0  0  0  0  0  0  0  0
    4.5926  -17.5333    0.0000 N   0  0  0  0  0  0  0  0  0  0  0  0
    6.0673  -15.9240    0.0000 N   0  0  0  0  0  0  0  0  0  0  0  0
    5.3501  -14.6880    0.0000 C   0  0  0  0  0  0  0  0  0  0  0  0
    8.2080  -14.6819    0.0000 C   0  0  0  0  0  0  0  0  0  0  0  0
    5.3483  -13.8630    0.0000 N   0  0  0  0  0  0  0  0  0  0  0  0
    6.0655  -15.0990    0.0000 C   0  0  2  0  0  0  0  0  0  0  0  0
    6.7791  -14.6850    0.0000 C   0  0  0  0  0  0  0  0  0  0  0  0
    7.4945  -15.0959    0.0000 C   0  0  0  0  0  0  0  0  0  0  0  0
    4.6366  -15.1020    0.0000 O   0  0  0  0  0  0  0  0  0  0  0  0
    8.9234  -15.0927    0.0000 C   0  0  0  0  0  0  0  0  0  0  0  0
    9.6369  -14.6788    0.0000 N   0  0  0  0  0  0  0  0  0  0  0  0
   11.7804  -13.4413    0.0000 C   0  0  0  0  0  0  0  0  0  0  0  0
   12.4948  -13.0288    0.0000 C   0  0  0  0  0  0  0  0  0  0  0  0
   11.7804  -14.2663    0.0000 O   0  0  0  0  0  0  0  0  0  0  0  0
   13.2093  -13.4413    0.0000 C   0  0  0  0  0  0  0  0  0  0  0  0
   15.3528  -12.2037    0.0000 N   0  0  0  0  0  0  0  0  0  0  0  0
   14.6383  -13.4413    0.0000 C   0  0  0  0  0  0  0  0  0  0  0  0
   17.4962  -13.4413    0.0000 C   0  0  0  0  0  0  0  0  0  0  0  0
   13.9238  -13.0288    0.0000 N   0  0  0  0  0  0  0  0  0  0  0  0
   15.3528  -13.0287    0.0000 C   0  0  2  0  0  0  0  0  0  0  0  0
   16.0672  -13.4412    0.0000 C   0  0  0  0  0  0  0  0  0  0  0  0
   16.7817  -13.0288    0.0000 C   0  0  0  0  0  0  0  0  0  0  0  0
   14.6383  -14.2663    0.0000 O   0  0  0  0  0  0  0  0  0  0  0  0
   18.2106  -13.0288    0.0000 C   0  0  0  0  0  0  0  0  0  0  0  0
   18.9251  -13.4413    0.0000 N   0  0  0  0  0  0  0  0  0  0  0  0
   19.6396  -13.0288    0.0000 C   0  0  0  0  0  0  0  0  0  0  0  0
   20.3541  -13.4413    0.0000 O   0  0  0  0  0  0  0  0  0  0  0  0
   19.6396  -12.2038    0.0000 O   0  0  0  0  0  0  0  0  0  0  0  0
   21.0685  -13.0288    0.0000 C   0  0  0  0  0  0  0  0  0  0  0  0
   21.7830  -13.4413    0.0000 C   0  0  0  0  0  0  0  0  0  0  0  0
   22.4975  -13.0288    0.0000 O   0  0  0  0  0  0  0  0  0  0  0  0
   24.1975  -13.1128    0.0000 *   0  0  0  0  0  0  0  0  0  0  0  0
   16.0672  -11.7912    0.0000 C   0  0  0  0  0  0  0  0  0  0  0  0
   16.0672  -10.9662    0.0000 O   0  0  0  0  0  0  0  0  0  0  0  0
   16.7817  -12.2037    0.0000 O   0  0  0  0  0  0  0  0  0  0  0  0
   16.7817  -10.5537    0.0000 C   0  0  0  0  0  0  0  0  0  0  0  0
   17.4962  -10.9662    0.0000 C   0  0  0  0  0  0  0  0  0  0  0  0
   18.2106  -10.5537    0.0000 O   0  0  0  0  0  0  0  0  0  0  0  0
   19.7792  -10.6049    0.0000 *   0  0  0  0  0  0  0  0  0  0  0  0
    3.8835  -17.1116    0.0000 C   0  0  0  0  0  0  0  0  0  0  0  0
   -8.9419   -8.1954    0.0000 O   0  0  0  0  0  0  0  0  0  0  0  0
   -8.9334  -18.7271    0.0000 O   0  0  0  0  0  0  0  0  0  0  0  0
  2  4  2  0  0  0  0
  4  1  1  0  0  0  0
  4  3  1  0  0  0  0
  3  5  1  0  0  0  0
  6  7  1  0  0  0  0
  6  5  1  0  0  0  0
  7  8  1  1  0  0  0
  7  9  1  0  0  0  0
 10  6  2  0  0  0  0
 11 12  1  0  0  0  0
 11 13  1  0  0  0  0
 11 14  1  6  0  0  0
 12  8  1  0  0  0  0
 15 12  2  0  0  0  0
 16 17  1  0  0  0  0
 17 18  1  1  0  0  0
 14 16  1  0  0  0  0
 19 21  2  0  0  0  0
 20 22  1  6  0  0  0
 21 18  1  0  0  0  0
 21 20  1  0  0  0  0
 23 26  2  0  0  0  0
 25 24  1  1  0  0  0
 26 22  1  0  0  0  0
 26 25  1  0  0  0  0
 27 25  1  0  0  0  0
 16 28  2  0  0  0  0
 17 29  1  0  0  0  0
 29 30  1  0  0  0  0
 20 31  1  0  0  0  0
 33 32  2  0  0  0  0
 34 32  1  0  0  0  0
 35 33  1  0  0  0  0
 36 34  2  0  0  0  0
 37 35  2  0  0  0  0
 37 36  1  0  0  0  0
 27 32  1  0  0  0  0
 37 38  1  0  0  0  0
 39 42  2  0  0  0  0
 41 40  1  6  0  0  0
 42 24  1  0  0  0  0
 42 41  1  0  0  0  0
 43 41  1  0  0  0  0
 45 44  1  0  0  0  0
 43 44  1  0  0  0  0
 44 46  1  0  0  0  0
 47 50  2  0  0  0  0
 49 48  1  0  0  0  0
 50 40  1  0  0  0  0
 50 49  1  0  0  0  0
 51 54  2  0  0  0  0
 53 52  1  0  0  0  0
 54 48  1  0  0  0  0
 54 53  1  0  0  0  0
 56 55  1  0  0  0  0
 57 55  2  0  0  0  0
 52 55  1  0  0  0  0
 59 58  2  0  0  0  0
 60 58  1  0  0  0  0
 61 59  1  0  0  0  0
 62 60  2  0  0  0  0
 62 61  1  0  0  0  0
 13 58  1  0  0  0  0
  9 63  1  0  0  0  0
 63 64  1  0  0  0  0
 64 65  1  0  0  0  0
 66 67  1  0  0  0  0
 68 66  1  0  0  0  0
 68  1  1  6  0  0  0
 68 71  1  0  0  0  0
  1 69  1  0  0  0  0
 69 70  1  0  0  0  0
 70 71  1  0  0  0  0
 72 66  2  0  0  0  0
 73 67  1  6  0  0  0
 74 73  1  0  0  0  0
 75 73  1  0  0  0  0
 75 76  1  1  0  0  0
 75 77  1  0  0  0  0
 77 78  1  0  0  0  0
 74 79  1  0  0  0  0
 80 83  1  0  0  0  0
 81 79  1  1  0  0  0
 83 81  1  0  0  0  0
 84 81  1  0  0  0  0
 84 82  1  6  0  0  0
 84 85  1  0  0  0  0
 86 89  1  0  0  0  0
 88 87  1  6  0  0  0
 89 88  1  0  0  0  0
 90 88  1  0  0  0  0
 91 93  2  0  0  0  0
 92 80  1  6  0  0  0
 93 87  1  0  0  0  0
 93 92  1  0  0  0  0
 94 92  1  0  0  0  0
 90 95  1  0  0  0  0
 97 96  1  0  0  0  0
 98 96  2  0  0  0  0
100 98  1  0  0  0  0
101 99  1  0  0  0  0
101100  2  0  0  0  0
 94 96  1  0  0  0  0
103102  2  0  0  0  0
104102  1  0  0  0  0
105103  1  0  0  0  0
 97104  2  0  0  0  0
 99105  2  0  0  0  0
 99 97  1  0  0  0  0
 83106  2  0  0  0  0
 90107  1  0  0  0  0
108111  1  0  0  0  0
110 86  1  1  0  0  0
111109  2  0  0  0  0
111110  1  0  0  0  0
110112  1  0  0  0  0
112113  1  0  0  0  0
 89114  2  0  0  0  0
113 30  1  0  0  0  0
115117  1  0  0  0  0
115118  1  0  0  0  0
116121  1  0  0  0  0
116119  2  0  0  0  0
116122  1  0  0  0  0
118120  1  0  0  0  0
118108  1  6  0  0  0
120121  1  0  0  0  0
123115  2  0  0  0  0
124125  1  0  0  0  0
126124  1  0  0  0  0
126117  1  6  0  0  0
126129  1  0  0  0  0
117127  1  0  0  0  0
127128  1  0  0  0  0
128129  1  0  0  0  0
130124  2  0  0  0  0
131133  2  0  0  0  0
132125  1  6  0  0  0
133145  1  0  0  0  0
133132  1  0  0  0  0
134132  1  0  0  0  0
136135  1  0  0  0  0
134135  1  0  0  0  0
135137  1  0  0  0  0
138140  2  0  0  0  0
138142  1  0  0  0  0
138144  1  0  0  0  0
139143  1  0  0  0  0
139141  2  0  0  0  0
142146  1  0  0  0  0
143147  1  0  0  0  0
143145  1  1  0  0  0
146148  1  0  0  0  0
147148  1  0  0  0  0
152139  1  0  0  0  0
149151  2  0  0  0  0
150152  1  0  0  0  0
151153  1  0  0  0  0
151150  1  0  0  0  0
154156  1  0  0  0  0
154157  1  0  0  0  0
155159  1  0  0  0  0
157158  1  0  0  0  0
157153  1  1  0  0  0
158159  1  0  0  0  0
160154  2  0  0  0  0
152161  1  0  0  0  0
155162  1  0  0  0  0
162163  1  0  0  0  0
163164  1  0  0  0  0
164165  1  0  0  0  0
164166  2  0  0  0  0
165167  1  0  0  0  0
167168  1  0  0  0  0
168169  1  0  0  0  0
169170  2  0  0  0  0
169332  1  0  0  0  0
172174  2  0  0  0  0
174171  1  0  0  0  0
174173  1  0  0  0  0
173175  1  0  0  0  0
176177  1  0  0  0  0
176175  1  0  0  0  0
177178  1  6  0  0  0
177179  1  0  0  0  0
180176  2  0  0  0  0
181182  1  0  0  0  0
181183  1  0  0  0  0
181184  1  1  0  0  0
182178  1  0  0  0  0
185182  2  0  0  0  0
186187  1  0  0  0  0
187188  1  6  0  0  0
184186  1  0  0  0  0
189191  2  0  0  0  0
190192  1  1  0  0  0
191188  1  0  0  0  0
191190  1  0  0  0  0
193196  2  0  0  0  0
195194  1  6  0  0  0
196192  1  0  0  0  0
196195  1  0  0  0  0
197195  1  0  0  0  0
186198  2  0  0  0  0
187199  1  0  0  0  0
199200  1  0  0  0  0
190201  1  0  0  0  0
203202  2  0  0  0  0
204202  1  0  0  0  0
205203  1  0  0  0  0
206204  2  0  0  0  0
207205  2  0  0  0  0
207206  1  0  0  0  0
197202  1  0  0  0  0
207208  1  0  0  0  0
209212  2  0  0  0  0
211210  1  1  0  0  0
212194  1  0  0  0  0
212211  1  0  0  0  0
213211  1  0  0  0  0
215214  1  0  0  0  0
213214  1  0  0  0  0
214216  1  0  0  0  0
217220  2  0  0  0  0
219218  1  0  0  0  0
220210  1  0  0  0  0
220219  1  0  0  0  0
221224  2  0  0  0  0
223222  1  0  0  0  0
224218  1  0  0  0  0
224223  1  0  0  0  0
226225  1  0  0  0  0
227225  2  0  0  0  0
222225  1  0  0  0  0
229228  2  0  0  0  0
230228  1  0  0  0  0
231229  1  0  0  0  0
232230  2  0  0  0  0
232231  1  0  0  0  0
183228  1  0  0  0  0
179233  1  0  0  0  0
233234  1  0  0  0  0
234235  1  0  0  0  0
236237  1  0  0  0  0
238236  1  0  0  0  0
238171  1  1  0  0  0
238241  1  0  0  0  0
171239  1  0  0  0  0
239240  1  0  0  0  0
240241  1  0  0  0  0
242236  2  0  0  0  0
243237  1  1  0  0  0
244243  1  0  0  0  0
245243  1  0  0  0  0
245246  1  6  0  0  0
245247  1  0  0  0  0
247248  1  0  0  0  0
244249  1  0  0  0  0
250253  1  0  0  0  0
251249  1  6  0  0  0
253251  1  0  0  0  0
254251  1  0  0  0  0
254252  1  1  0  0  0
254255  1  0  0  0  0
256259  1  0  0  0  0
258257  1  1  0  0  0
259258  1  0  0  0  0
260258  1  0  0  0  0
261263  2  0  0  0  0
262250  1  1  0  0  0
263257  1  0  0  0  0
263262  1  0  0  0  0
264262  1  0  0  0  0
260265  1  0  0  0  0
267266  1  0  0  0  0
268266  2  0  0  0  0
270268  1  0  0  0  0
271269  1  0  0  0  0
271270  2  0  0  0  0
264266  1  0  0  0  0
273272  2  0  0  0  0
274272  1  0  0  0  0
275273  1  0  0  0  0
267274  2  0  0  0  0
269275  2  0  0  0  0
269267  1  0  0  0  0
253276  2  0  0  0  0
260277  1  0  0  0  0
278281  1  0  0  0  0
280256  1  6  0  0  0
281279  2  0  0  0  0
281280  1  0  0  0  0
280282  1  0  0  0  0
282283  1  0  0  0  0
259284  2  0  0  0  0
283200  1  0  0  0  0
285287  1  0  0  0  0
285288  1  0  0  0  0
286291  1  0  0  0  0
286289  2  0  0  0  0
286292  1  0  0  0  0
288290  1  0  0  0  0
288278  1  1  0  0  0
290291  1  0  0  0  0
293285  2  0  0  0  0
294295  1  0  0  0  0
296294  1  0  0  0  0
296287  1  1  0  0  0
296299  1  0  0  0  0
287297  1  0  0  0  0
297298  1  0  0  0  0
298299  1  0  0  0  0
300294  2  0  0  0  0
301303  2  0  0  0  0
302295  1  1  0  0  0
303315  1  0  0  0  0
303302  1  0  0  0  0
304302  1  0  0  0  0
306305  1  0  0  0  0
304305  1  0  0  0  0
305307  1  0  0  0  0
308310  2  0  0  0  0
308312  1  0  0  0  0
308314  1  0  0  0  0
309313  1  0  0  0  0
309311  2  0  0  0  0
312316  1  0  0  0  0
313317  1  0  0  0  0
313315  1  6  0  0  0
316318  1  0  0  0  0
317318  1  0  0  0  0
322309  1  0  0  0  0
319321  2  0  0  0  0
320322  1  0  0  0  0
321323  1  0  0  0  0
321320  1  0  0  0  0
324326  1  0  0  0  0
324327  1  0  0  0  0
325329  1  0  0  0  0
327328  1  0  0  0  0
327323  1  6  0  0  0
328329  1  0  0  0  0
330324  2  0  0  0  0
325331  1  0  0  0  0
331332  1  0  0  0  0
167333  1  0  0  0  0
333334  1  0  0  0  0
333335  2  0  0  0  0
334336  1  0  0  0  0
336340  1  0  0  0  0
338340  1  0  0  0  0
338341  1  0  0  0  0
339343  1  0  0  0  0
341342  1  0  0  0  0
341337  1  1  0  0  0
342343  1  0  0  0  0
344338  2  0  0  0  0
339345  1  0  0  0  0
345346  1  0  0  0  0
346347  1  0  0  0  0
347348  1  0  0  0  0
347349  2  0  0  0  0
348350  1  0  0  0  0
350351  1  0  0  0  0
351352  1  0  0  0  0
352353  1  0  0  0  0
337354  1  0  0  0  0
354355  1  0  0  0  0
354356  2  0  0  0  0
355357  1  0  0  0  0
357358  1  0  0  0  0
358359  1  0  0  0  0
359360  1  0  0  0  0
322361  1  0  0  0  0
 74362  2  0  0  0  0
244363  2  0  0  0  0
M  END
> <DRUGBANK_ID>
DB08894

> <DRUG_GROUPS>
approved

> <GENERIC_NAME>
Peginesatide

> <SYNONYMS>


> <SALTS>
Peginesatide acetate 

> <BRANDS>
Omontys

> <CHEMICAL_FORMULA>
(C2H4O)n(C2H4O)nC229H344N62O58S6 __ 

$$$$
