UC3
  Mrv0541 02241214152D          

 20 20  0  0  0  0            999 V2000
    0.7579    1.2176    0.0000 C    0  0  0  0  0  0  0  0  0  0  0  0
    0.7579    0.3926    0.0000 S    0  0  0  0  0  0  0  0  0  0  0  0
    0.0435    1.6301    0.0000 N    0  0  0  0  0  0  0  0  0  0  0  0
   -0.6710    1.2176    0.0000 C    0  0  0  0  0  0  0  0  0  0  0  0
   -0.6710    0.3926    0.0000 C    0  0  0  0  0  0  0  0  0  0  0  0
   -1.3855   -0.0199    0.0000 C    0  0  0  0  0  0  0  0  0  0  0  0
   -2.1000    0.3926    0.0000 C    0  0  0  0  0  0  0  0  0  0  0  0
   -2.8144   -0.0199    0.0000 Cl   0  0  0  0  0  0  0  0  0  0  0  0
   -2.1000    1.2176    0.0000 C    0  0  0  0  0  0  0  0  0  0  0  0
   -1.3855    1.6301    0.0000 C    0  0  0  0  0  0  0  0  0  0  0  0
   -1.3855   -0.8449    0.0000 C    0  0  0  0  0  0  0  0  0  0  0  0
   -2.1000   -1.2574    0.0000 O    0  0  0  0  0  0  0  0  0  0  0  0
   -0.6710   -1.2574    0.0000 O    0  0  0  0  0  0  0  0  0  0  0  0
   -2.1000   -2.0824    0.0000 C    0  0  0  0  0  0  0  0  0  0  0  0
   -2.8144   -2.4949    0.0000 C    0  0  0  0  0  0  0  0  0  0  0  0
   -1.3855   -2.4949    0.0000 C    0  0  0  0  0  0  0  0  0  0  0  0
    1.4724    1.6301    0.0000 O    0  0  0  0  0  0  0  0  0  0  0  0
    2.1869    1.2176    0.0000 C    0  0  0  0  0  0  0  0  0  0  0  0
    2.9013    1.6301    0.0000 C    0  0  0  0  0  0  0  0  0  0  0  0
    2.1869    0.3926    0.0000 C    0  0  0  0  0  0  0  0  0  0  0  0
  1  2  2  0  0  0  0
  1  3  1  0  0  0  0
  1 17  1  0  0  0  0
  3  4  1  0  0  0  0
  4  5  2  0  0  0  0
  4 10  1  0  0  0  0
  5  6  1  0  0  0  0
  6  7  2  0  0  0  0
  6 11  1  0  0  0  0
  7  8  1  0  0  0  0
  7  9  1  0  0  0  0
  9 10  2  0  0  0  0
 11 12  1  0  0  0  0
 11 13  2  0  0  0  0
 12 14  1  0  0  0  0
 14 15  1  0  0  0  0
 14 16  1  0  0  0  0
 17 18  1  0  0  0  0
 18 19  1  0  0  0  0
 18 20  1  0  0  0  0
M  END
> <DRUGBANK_ID>
DB08681

> <DRUG_GROUPS>
experimental

> <GENERIC_NAME>
1-METHYL ETHYL 2-CHLORO-5-[[[(1-METHYLETHOXY)THIOOXO]METHYL]AMINO]-BENZOATE

> <CHEMICAL_FORMULA>
C14H18ClNO3S

> <MOLECULAR_WEIGHT>
315.816

> <EXACT_MASS>
315.069591844

> <IUPAC_NAME>
propan-2-yl 2-chloro-5-{[(propan-2-yloxy)methanethioyl]amino}benzoate

> <IUPAC_TRADITIONAL_NAME>
isopropyl 2-chloro-5-[(isopropoxymethanethioyl)amino]benzoate

> <INCHI_IDENTIFIER>
InChI=1S/C14H18ClNO3S/c1-8(2)18-13(17)11-7-10(5-6-12(11)15)16-14(20)19-9(3)4/h5-9H,1-4H3,(H,16,20)

> <INCHI_KEY>
InChIKey=AXTNFJKQZPETJA-UHFFFAOYSA-N

> <SMILES>
CC(C)OC(=S)NC1=CC(C(=O)OC(C)C)=C(Cl)C=C1

> <JCHEM_ACCEPTOR_COUNT>
2

> <JCHEM_DONOR_COUNT>
1

> <JCHEM_ACIDIC_PKA>
10.65

> <JCHEM_BASIC_PKA>
-2.1

> <JCHEM_PHYSIOLOGICAL_CHARGE>
0

> <ALOGPS_LOGP>
4.11

> <JCHEM_LOGP>
4.87

> <ALOGPS_LOGS>
-5.1

> <JCHEM_POLARIZABILITY>
32.62

> <JCHEM_POLAR_SURFACE_AREA>
47.56

> <JCHEM_REFRACTIVITY>
85.7

> <JCHEM_ROTATABLE_BOND_COUNT>
6

> <ALOGPS_SOLUBILITY>
2.68e-03 g/l __ 

$$$$
