SH4
  Mrv0541 02241214102D          

 24 25  0  0  0  0            999 V2000
    0.1221   -0.2078    0.0000 O   0  5  0  0  0  0  0  0  0  0  0  0
    0.1221    0.6172    0.0000 P   0  0  2  0  0  0  0  0  0  0  0  0
    0.1221    1.4422    0.0000 O   0  0  0  0  0  0  0  0  0  0  0  0
   -0.7029    0.6172    0.0000 O   0  0  0  0  0  0  0  0  0  0  0  0
   -1.1154    1.3317    0.0000 C   0  0  1  0  0  0  0  0  0  0  0  0
   -1.9404    1.3317    0.0000 C   0  0  0  0  0  0  0  0  0  0  0  0
   -2.3529    0.6172    0.0000 C   0  0  0  0  0  0  0  0  0  0  0  0
   -3.1779    0.6172    0.0000 C   0  0  0  0  0  0  0  0  0  0  0  0
   -3.5904    1.3317    0.0000 C   0  0  0  0  0  0  0  0  0  0  0  0
   -3.1779    2.0462    0.0000 C   0  0  0  0  0  0  0  0  0  0  0  0
   -2.3529    2.0462    0.0000 C   0  0  0  0  0  0  0  0  0  0  0  0
   -0.7029    2.0462    0.0000 C   0  0  0  0  0  0  0  0  0  0  0  0
    0.9471    0.6172    0.0000 C   0  0  0  0  0  0  0  0  0  0  0  0
    1.3596   -0.0973    0.0000 C   0  0  0  0  0  0  0  0  0  0  0  0
    2.1846   -0.0973    0.0000 C   0  0  0  0  0  0  0  0  0  0  0  0
    2.5971   -0.8117    0.0000 C   0  0  0  0  0  0  0  0  0  0  0  0
    2.1846   -1.5262    0.0000 C   0  0  0  0  0  0  0  0  0  0  0  0
    2.5971   -2.2407    0.0000 N   0  0  0  0  0  0  0  0  0  0  0  0
    2.1846   -2.9551    0.0000 C   0  0  0  0  0  0  0  0  0  0  0  0
    2.5971   -3.6696    0.0000 O   0  0  0  0  0  0  0  0  0  0  0  0
    1.3596   -2.9551    0.0000 C   0  0  0  0  0  0  0  0  0  0  0  0
    1.3596   -1.5262    0.0000 C   0  0  0  0  0  0  0  0  0  0  0  0
    0.9471   -0.8117    0.0000 C   0  0  0  0  0  0  0  0  0  0  0  0
   -1.4074    0.8260    0.0000 H   0  0  0  0  0  0  0  0  0  0  0  0
  2  1  1  1  0  0  0
  2  3  2  0  0  0  0
  2  4  1  6  0  0  0
  2 13  1  0  0  0  0
  4  5  1  0  0  0  0
  5  6  1  0  0  0  0
  5 12  1  6  0  0  0
  5 24  1  6  0  0  0
  6  7  2  0  0  0  0
  6 11  1  0  0  0  0
  7  8  1  0  0  0  0
  8  9  2  0  0  0  0
  9 10  1  0  0  0  0
 10 11  2  0  0  0  0
 13 14  1  0  0  0  0
 14 15  2  0  0  0  0
 14 23  1  0  0  0  0
 15 16  1  0  0  0  0
 16 17  2  0  0  0  0
 17 18  1  0  0  0  0
 17 22  1  0  0  0  0
 18 19  1  0  0  0  0
 19 20  2  0  0  0  0
 19 21  1  0  0  0  0
 22 23  2  0  0  0  0
M  END
> <DRUGBANK_ID>
DB08545

> <DRUG_GROUPS>
experimental

> <GENERIC_NAME>
(1R)-1-PHENYLETHYL 4-(ACETYLAMINO)BENZYLPHOSPHONATE

> <CHEMICAL_FORMULA>
C17H19NO4P

> <MOLECULAR_WEIGHT>
332.3108

> <EXACT_MASS>
332.105169613

> <IUPAC_NAME>
(R)-((1R)-1-phenylethyl [(4-acetamidophenyl)methyl]phosphonate)

> <IUPAC_TRADITIONAL_NAME>
(R)-((1R)-1-phenylethyl (4-acetamidophenyl)methylphosphonate)

> <INCHI_IDENTIFIER>
InChI=1S/C17H20NO4P/c1-13(16-6-4-3-5-7-16)22-23(20,21)12-15-8-10-17(11-9-15)18-14(2)19/h3-11,13H,12H2,1-2H3,(H,18,19)(H,20,21)/p-1/t13-/m1/s1

> <INCHI_KEY>
InChIKey=YPTMOJMDCPUCJT-CYBMUJFWSA-M

> <SMILES>
[H][C@](C)(O[P@]([O-])(=O)CC1=CC=C(NC(C)=O)C=C1)C1=CC=CC=C1

> <JCHEM_ACCEPTOR_COUNT>
3

> <JCHEM_DONOR_COUNT>
1

> <JCHEM_ACIDIC_PKA>
1.89

> <JCHEM_BASIC_PKA>
-4.4

> <JCHEM_PHYSIOLOGICAL_CHARGE>
-1

> <ALOGPS_LOGP>
2.51

> <JCHEM_LOGP>
2.56

> <ALOGPS_LOGS>
-3.8

> <JCHEM_POLARIZABILITY>
33.51

> <JCHEM_POLAR_SURFACE_AREA>
78.46

> <JCHEM_REFRACTIVITY>
89.17

> <JCHEM_ROTATABLE_BOND_COUNT>
6

> <ALOGPS_SOLUBILITY>
5.69e-02 g/l __ 

$$$$
