P44
  Mrv0541 02241214022D          

 26 29  0  0  0  0            999 V2000
   -1.6674   -0.8531    0.0000 N   0  0  0  0  0  0  0  0  0  0  0  0
   -2.1523   -0.1856    0.0000 C   0  0  0  0  0  0  0  0  0  0  0  0
   -1.6674    0.4818    0.0000 C   0  0  0  0  0  0  0  0  0  0  0  0
   -0.8828    0.2269    0.0000 C   0  0  0  0  0  0  0  0  0  0  0  0
   -0.8828   -0.5981    0.0000 N   0  0  0  0  0  0  0  0  0  0  0  0
   -0.1683    0.6394    0.0000 N   0  0  0  0  0  0  0  0  0  0  0  0
    0.5462    0.2269    0.0000 C   0  0  0  0  0  0  0  0  0  0  0  0
    0.5462   -0.5981    0.0000 N   0  0  0  0  0  0  0  0  0  0  0  0
   -0.1683   -1.0106    0.0000 C   0  0  0  0  0  0  0  0  0  0  0  0
   -0.1683   -1.8356    0.0000 N   0  0  0  0  0  0  0  0  0  0  0  0
   -0.8828   -2.2481    0.0000 C   0  0  0  0  0  0  0  0  0  0  0  0
   -0.8828   -3.0731    0.0000 C   0  0  0  0  0  0  0  0  0  0  0  0
   -1.5972   -3.4856    0.0000 C   0  0  0  0  0  0  0  0  0  0  0  0
   -2.3117   -3.0731    0.0000 C   0  0  0  0  0  0  0  0  0  0  0  0
   -2.3117   -2.2481    0.0000 C   0  0  0  0  0  0  0  0  0  0  0  0
   -1.5972   -1.8356    0.0000 C   0  0  0  0  0  0  0  0  0  0  0  0
    1.2606    0.6394    0.0000 N   0  0  0  0  0  0  0  0  0  0  0  0
    1.2606    1.4644    0.0000 C   0  0  0  0  0  0  0  0  0  0  0  0
    1.9751    1.8769    0.0000 C   0  0  0  0  0  0  0  0  0  0  0  0
    1.9751    2.7019    0.0000 C   0  0  0  0  0  0  0  0  0  0  0  0
    2.6896    3.1144    0.0000 C   0  0  0  0  0  0  0  0  0  0  0  0
    3.4041    2.7019    0.0000 C   0  0  0  0  0  0  0  0  0  0  0  0
    3.4041    1.8769    0.0000 C   0  0  0  0  0  0  0  0  0  0  0  0
    2.6896    1.4644    0.0000 C   0  0  0  0  0  0  0  0  0  0  0  0
   -1.9223    1.2664    0.0000 C   0  0  0  0  0  0  0  0  0  0  0  0
   -2.1773    2.0510    0.0000 N   0  0  0  0  0  0  0  0  0  0  0  0
  1  2  2  0  0  0  0
  1  5  1  0  0  0  0
  2  3  1  0  0  0  0
  3 25  1  0  0  0  0
  3  4  2  0  0  0  0
  4  6  1  0  0  0  0
  4  5  1  0  0  0  0
  5  9  1  0  0  0  0
  6  7  2  0  0  0  0
  7 17  1  0  0  0  0
  7  8  1  0  0  0  0
  8  9  2  0  0  0  0
  9 10  1  0  0  0  0
 10 11  1  0  0  0  0
 11 12  2  0  0  0  0
 11 16  1  0  0  0  0
 12 13  1  0  0  0  0
 13 14  2  0  0  0  0
 14 15  1  0  0  0  0
 15 16  2  0  0  0  0
 17 18  1  0  0  0  0
 18 19  1  0  0  0  0
 19 20  1  0  0  0  0
 19 24  1  0  0  0  0
 20 21  1  0  0  0  0
 21 22  1  0  0  0  0
 22 23  1  0  0  0  0
 23 24  1  0  0  0  0
 25 26  3  0  0  0  0
M  END
> <DRUGBANK_ID>
DB08353

> <DRUG_GROUPS>
experimental

> <GENERIC_NAME>
2-(CYCLOHEXYLMETHYLAMINO)-4-(PHENYLAMINO)PYRAZOLO[1,5-A][1,3,5]TRIAZINE-8-CARBONITRILE

> <CHEMICAL_FORMULA>
C19H21N7

> <MOLECULAR_WEIGHT>
347.4169

> <EXACT_MASS>
347.185843707

> <IUPAC_NAME>
2-[(cyclohexylmethyl)amino]-4-(phenylamino)pyrazolo[1,5-a][1,3,5]triazine-8-carbonitrile

> <IUPAC_TRADITIONAL_NAME>
2-[(cyclohexylmethyl)amino]-4-(phenylamino)pyrazolo[1,5-a][1,3,5]triazine-8-carbonitrile

> <INCHI_IDENTIFIER>
InChI=1S/C19H21N7/c20-11-15-13-22-26-17(15)24-18(21-12-14-7-3-1-4-8-14)25-19(26)23-16-9-5-2-6-10-16/h2,5-6,9-10,13-14H,1,3-4,7-8,12H2,(H2,21,23,24,25)

> <INCHI_KEY>
InChIKey=NCVMTHVSAJMOPI-UHFFFAOYSA-N

> <SMILES>
N#CC1=C2N=C(NCC3CCCCC3)N=C(NC3=CC=CC=C3)N2N=C1

> <JCHEM_ACCEPTOR_COUNT>
6

> <JCHEM_DONOR_COUNT>
2

> <JCHEM_ACIDIC_PKA>
14.03

> <JCHEM_BASIC_PKA>
1.73

> <JCHEM_PHYSIOLOGICAL_CHARGE>
0

> <ALOGPS_LOGP>
3.9

> <JCHEM_LOGP>
4.21

> <ALOGPS_LOGS>
-4.2

> <JCHEM_POLARIZABILITY>
37.83

> <JCHEM_POLAR_SURFACE_AREA>
90.93

> <JCHEM_REFRACTIVITY>
112.51

> <JCHEM_ROTATABLE_BOND_COUNT>
5

> <ALOGPS_SOLUBILITY>
2.40e-02 g/l __ 

$$$$
