T2D
  Mrv0541 02241214112D          

 14 15  0  0  0  0            999 V2000
    0.1876   -0.1471    0.0000 C   0  0  0  0  0  0  0  0  0  0  0  0
    0.9722    0.1078    0.0000 C   0  0  0  0  0  0  0  0  0  0  0  0
    1.5853   -0.4442    0.0000 C   0  0  0  0  0  0  0  0  0  0  0  0
    1.4138   -1.2512    0.0000 C   0  0  0  0  0  0  0  0  0  0  0  0
    0.6292   -1.5061    0.0000 C   0  0  0  0  0  0  0  0  0  0  0  0
    0.0161   -0.9541    0.0000 C   0  0  0  0  0  0  0  0  0  0  0  0
   -0.7685   -1.2091    0.0000 N   0  0  0  0  0  0  0  0  0  0  0  0
   -1.0235   -1.9937    0.0000 S   0  0  0  0  0  0  0  0  0  0  0  0
   -1.8485   -1.9937    0.0000 N   0  0  0  0  0  0  0  0  0  0  0  0
   -2.1034   -1.2091    0.0000 C   0  0  0  0  0  0  0  0  0  0  0  0
   -1.4360   -0.7241    0.0000 C   0  0  0  0  0  0  0  0  0  0  0  0
   -2.8880   -0.9541    0.0000 O   0  0  0  0  0  0  0  0  0  0  0  0
   -0.2734   -2.3371    0.0000 O   0  0  0  0  0  0  0  0  0  0  0  0
   -0.9287   -2.8132    0.0000 O   0  0  0  0  0  0  0  0  0  0  0  0
  1  2  1  0  0  0  0
  1  6  2  0  0  0  0
  2  3  2  0  0  0  0
  3  4  1  0  0  0  0
  4  5  2  0  0  0  0
  5  6  1  0  0  0  0
  6  7  1  0  0  0  0
  7  8  1  0  0  0  0
  7 11  1  0  0  0  0
  8  9  1  0  0  0  0
  8 13  2  0  0  0  0
  8 14  2  0  0  0  0
  9 10  1  0  0  0  0
 10 11  1  0  0  0  0
 10 12  2  0  0  0  0
M  END
> <DRUGBANK_ID>
DB08593

> <DRUG_GROUPS>
experimental

> <GENERIC_NAME>
1,2,5-THIADIAZOLIDIN-3-ONE-1,1-DIOXIDE

> <CHEMICAL_FORMULA>
C8H8N2O3S

> <MOLECULAR_WEIGHT>
212.226

> <EXACT_MASS>
212.025562822

> <IUPAC_NAME>
5-phenyl-1$l^{6},2,5-thiadiazolidine-1,1,3-trione

> <IUPAC_TRADITIONAL_NAME>
5-phenyl-1$l^{6},2,5-thiadiazolidine-1,1,3-trione

> <INCHI_IDENTIFIER>
InChI=1S/C8H8N2O3S/c11-8-6-10(14(12,13)9-8)7-4-2-1-3-5-7/h1-5H,6H2,(H,9,11)

> <INCHI_KEY>
InChIKey=LDCZCUKQWRZSDT-UHFFFAOYSA-N

> <SMILES>
O=C1CN(C2=CC=CC=C2)S(=O)(=O)N1

> <JCHEM_ACCEPTOR_COUNT>
3

> <JCHEM_DONOR_COUNT>
1

> <JCHEM_ACIDIC_PKA>
3.78

> <JCHEM_PHYSIOLOGICAL_CHARGE>
-1

> <ALOGPS_LOGP>
0.16

> <JCHEM_LOGP>
-0.2

> <ALOGPS_LOGS>
-1.5

> <JCHEM_POLARIZABILITY>
19.36

> <JCHEM_POLAR_SURFACE_AREA>
66.48

> <JCHEM_REFRACTIVITY>
49.42

> <JCHEM_ROTATABLE_BOND_COUNT>
1

> <ALOGPS_SOLUBILITY>
6.34e+00 g/l __ 

$$$$
