
  Mrv0541 02241214202D          

  6  5  0  0  0  0            999 V2000
    0.8250    1.4289    0.0000 O    0  0  0  0  0  0  0  0  0  0  0  0
    1.2375    0.7145    0.0000 C    0  0  0  0  0  0  0  0  0  0  0  0
    2.0625    0.7145    0.0000 O    0  0  0  0  0  0  0  0  0  0  0  0
    0.8250    0.0000    0.0000 C    0  0  0  0  0  0  0  0  0  0  0  0
    1.2375   -0.7145    0.0000 Cl   0  0  0  0  0  0  0  0  0  0  0  0
    0.0000    0.0000    0.0000 Cl   0  0  0  0  0  0  0  0  0  0  0  0
  1  2  1  0  0  0  0
  2  3  2  0  0  0  0
  2  4  1  0  0  0  0
  4  5  1  0  0  0  0
  4  6  1  0  0  0  0
M  END
> <DRUGBANK_ID>
DB08809

> <DRUG_GROUPS>
experimental

> <GENERIC_NAME>
Dichloroacetic Acid

> <SYNONYMS>


> <CHEMICAL_FORMULA>
C2H2Cl2O2

> <MOLECULAR_WEIGHT>
128.942

> <EXACT_MASS>
127.943184722

> <IUPAC_NAME>
2,2-dichloroacetic acid

> <IUPAC_TRADITIONAL_NAME>
dichloroacetic acid

> <INCHI_IDENTIFIER>
InChI=1S/C2H2Cl2O2/c3-1(4)2(5)6/h1H,(H,5,6)

> <INCHI_KEY>
InChIKey=JXTHNDFMNIQAHM-UHFFFAOYSA-N

> <SMILES>
OC(=O)C(Cl)Cl

> <JCHEM_ACCEPTOR_COUNT>
2

> <JCHEM_DONOR_COUNT>
1

> <JCHEM_ACIDIC_PKA>
2.3

> <JCHEM_PHYSIOLOGICAL_CHARGE>
-1

> <ALOGPS_LOGP>
0.99

> <JCHEM_LOGP>
1.06

> <ALOGPS_LOGS>
-0.25

> <JCHEM_POLARIZABILITY>
9.32

> <JCHEM_POLAR_SURFACE_AREA>
37.3

> <JCHEM_REFRACTIVITY>
22.62

> <JCHEM_ROTATABLE_BOND_COUNT>
1

> <ALOGPS_SOLUBILITY>
7.23e+01 g/l __ 

$$$$
