NC7
  Mrv0541 02241213582D          

 19 19  0  0  0  0            999 V2000
   -2.7264   -0.0770    0.0000 C   0  0  0  0  0  0  0  0  0  0  0  0
   -2.0118   -0.4895    0.0000 N   0  0  0  0  0  0  0  0  0  0  0  0
   -1.2973   -0.0770    0.0000 C   0  0  0  0  0  0  0  0  0  0  0  0
   -0.5828   -0.4895    0.0000 N   0  0  0  0  0  0  0  0  0  0  0  0
    0.1317   -0.0770    0.0000 C   0  0  0  0  0  0  0  0  0  0  0  0
    0.8463   -0.4895    0.0000 C   0  0  0  0  0  0  0  0  0  0  0  0
    1.5607   -0.0770    0.0000 C   0  0  0  0  0  0  0  0  0  0  0  0
    2.2753   -0.4895    0.0000 C   0  0  0  0  0  0  0  0  0  0  0  0
    2.9898   -0.0770    0.0000 C   0  0  0  0  0  0  0  0  0  0  0  0
   -1.2973    0.7481    0.0000 O   0  0  0  0  0  0  0  0  0  0  0  0
    3.7044   -0.4895    0.0000 C   0  0  0  0  0  0  0  0  0  0  0  0
    4.4188   -0.0770    0.0000 C   0  0  0  0  0  0  0  0  0  0  0  0
    5.1334   -0.4895    0.0000 O   0  0  0  0  0  0  0  0  0  0  0  0
    4.4188    0.7481    0.0000 O   0  0  0  0  0  0  0  0  0  0  0  0
   -3.4409   -0.4895    0.0000 C   0  0  0  0  0  0  0  0  0  0  0  0
   -4.1554   -0.0770    0.0000 C   0  0  0  0  0  0  0  0  0  0  0  0
   -4.1554    0.7481    0.0000 C   0  0  0  0  0  0  0  0  0  0  0  0
   -3.4409    1.1606    0.0000 C   0  0  0  0  0  0  0  0  0  0  0  0
   -2.7264    0.7481    0.0000 C   0  0  0  0  0  0  0  0  0  0  0  0
  1  2  1  0  0  0  0
  1 15  1  0  0  0  0
  1 19  1  0  0  0  0
  2  3  1  0  0  0  0
  3  4  1  0  0  0  0
  3 10  2  0  0  0  0
  4  5  1  0  0  0  0
  5  6  1  0  0  0  0
  6  7  1  0  0  0  0
  7  8  1  0  0  0  0
  8  9  1  0  0  0  0
  9 11  1  0  0  0  0
 11 12  1  0  0  0  0
 12 13  1  0  0  0  0
 12 14  2  0  0  0  0
 15 16  1  0  0  0  0
 16 17  1  0  0  0  0
 17 18  1  0  0  0  0
 18 19  1  0  0  0  0
M  END
> <DRUGBANK_ID>
DB08259

> <DRUG_GROUPS>
experimental

> <GENERIC_NAME>
7-{[(CYCLOHEXYLAMINO)CARBONYL]AMINO}HEPTANOIC ACID

> <CHEMICAL_FORMULA>
C14H26N2O3

> <MOLECULAR_WEIGHT>
270.3678

> <EXACT_MASS>
270.194342708

> <IUPAC_NAME>
7-[(cyclohexylcarbamoyl)amino]heptanoic acid

> <IUPAC_TRADITIONAL_NAME>
7-[(cyclohexylcarbamoyl)amino]heptanoic acid

> <INCHI_IDENTIFIER>
InChI=1S/C14H26N2O3/c17-13(18)10-6-1-2-7-11-15-14(19)16-12-8-4-3-5-9-12/h12H,1-11H2,(H,17,18)(H2,15,16,19)

> <INCHI_KEY>
InChIKey=GYTIWWDVOFXKPF-UHFFFAOYSA-N

> <SMILES>
OC(=O)CCCCCCNC(=O)NC1CCCCC1

> <JCHEM_ACCEPTOR_COUNT>
3

> <JCHEM_DONOR_COUNT>
3

> <JCHEM_ACIDIC_PKA>
4.49

> <JCHEM_BASIC_PKA>
-0.62

> <JCHEM_PHYSIOLOGICAL_CHARGE>
-1

> <ALOGPS_LOGP>
2.38

> <JCHEM_LOGP>
2.22

> <ALOGPS_LOGS>
-3.1

> <JCHEM_POLARIZABILITY>
31.61

> <JCHEM_POLAR_SURFACE_AREA>
78.43

> <JCHEM_REFRACTIVITY>
73.29

> <JCHEM_ROTATABLE_BOND_COUNT>
8

> <ALOGPS_SOLUBILITY>
2.31e-01 g/l __ 

$$$$
