S60
  Mrv0541 02241214082D          

 16 18  0  0  0  0            999 V2000
   -1.8990    0.4794    0.0000 C   0  0  0  0  0  0  0  0  0  0  0  0
   -2.6135    0.8919    0.0000 N   0  0  0  0  0  0  0  0  0  0  0  0
   -1.1845    0.8919    0.0000 N   0  0  0  0  0  0  0  0  0  0  0  0
   -0.4701    0.4794    0.0000 C   0  0  0  0  0  0  0  0  0  0  0  0
    0.2444    0.8919    0.0000 C   0  0  0  0  0  0  0  0  0  0  0  0
    0.9589    0.4794    0.0000 C   0  0  0  0  0  0  0  0  0  0  0  0
    1.7435    0.7343    0.0000 N   0  0  0  0  0  0  0  0  0  0  0  0
    2.2284    0.0669    0.0000 C   0  0  0  0  0  0  0  0  0  0  0  0
    3.0534    0.0669    0.0000 C   0  0  0  0  0  0  0  0  0  0  0  0
    1.7435   -0.6005    0.0000 N   0  0  0  0  0  0  0  0  0  0  0  0
    0.9589   -0.3456    0.0000 C   0  0  0  0  0  0  0  0  0  0  0  0
    0.2444   -0.7581    0.0000 C   0  0  0  0  0  0  0  0  0  0  0  0
   -0.4701   -0.3456    0.0000 C   0  0  0  0  0  0  0  0  0  0  0  0
   -1.1845   -0.7581    0.0000 C   0  0  0  0  0  0  0  0  0  0  0  0
   -1.1845   -1.5831    0.0000 O   0  0  0  0  0  0  0  0  0  0  0  0
   -1.8990   -0.3456    0.0000 N   0  0  0  0  0  0  0  0  0  0  0  0
  1  2  1  0  0  0  0
  1  3  2  0  0  0  0
  1 16  1  0  0  0  0
  3  4  1  0  0  0  0
  4  5  2  0  0  0  0
  4 13  1  0  0  0  0
  5  6  1  0  0  0  0
  6  7  1  0  0  0  0
  6 11  2  0  0  0  0
  7  8  2  0  0  0  0
  8  9  1  0  0  0  0
  8 10  1  0  0  0  0
 10 11  1  0  0  0  0
 11 12  1  0  0  0  0
 12 13  2  0  0  0  0
 13 14  1  0  0  0  0
 14 15  2  0  0  0  0
 14 16  1  0  0  0  0
M  END
> <DRUGBANK_ID>
DB08511

> <DRUG_GROUPS>
experimental

> <GENERIC_NAME>
6-amino-2-methyl-1,7-dihydro-8H-imidazo[4,5-g]quinazolin-8-one

> <CHEMICAL_FORMULA>
C10H9N5O

> <MOLECULAR_WEIGHT>
215.2114

> <EXACT_MASS>
215.080709935

> <IUPAC_NAME>
6-amino-2-methyl-1H,7H,8H-imidazo[4,5-g]quinazolin-8-one

> <IUPAC_TRADITIONAL_NAME>
6-amino-2-methyl-1H,7H-imidazo[4,5-g]quinazolin-8-one

> <INCHI_IDENTIFIER>
InChI=1S/C10H9N5O/c1-4-12-7-2-5-6(3-8(7)13-4)14-10(11)15-9(5)16/h2-3H,1H3,(H,12,13)(H3,11,14,15,16)

> <INCHI_KEY>
InChIKey=PLJNUNPYZVVIRA-UHFFFAOYSA-N

> <SMILES>
CC1=NC2=C(N1)C=C1C(=O)NC(N)=NC1=C2

> <JCHEM_ACCEPTOR_COUNT>
4

> <JCHEM_DONOR_COUNT>
3

> <JCHEM_ACIDIC_PKA>
11.06

> <JCHEM_BASIC_PKA>
4.97

> <JCHEM_PHYSIOLOGICAL_CHARGE>
0

> <ALOGPS_LOGP>
0.28

> <JCHEM_LOGP>
-0.094

> <ALOGPS_LOGS>
-3

> <JCHEM_POLARIZABILITY>
21.94

> <JCHEM_POLAR_SURFACE_AREA>
96.16

> <JCHEM_REFRACTIVITY>
59.54

> <JCHEM_ROTATABLE_BOND_COUNT>
0

> <ALOGPS_SOLUBILITY>
2.27e-01 g/l __ 

$$$$
