MCM
  Mrv0541 02241213542D          

 13 14  0  0  0  0            999 V2000
   -1.7379   -1.0532    0.0000 N   0  0  0  0  0  0  0  0  0  0  0  0
   -1.0234   -0.6407    0.0000 C   0  0  0  0  0  0  0  0  0  0  0  0
   -0.3089   -1.0532    0.0000 C   0  0  0  0  0  0  0  0  0  0  0  0
    0.4055   -0.6407    0.0000 C   0  0  0  0  0  0  0  0  0  0  0  0
    1.8345   -0.6407    0.0000 C   0  0  0  0  0  0  0  0  0  0  0  0
    1.8345    0.1843    0.0000 C   0  0  0  0  0  0  0  0  0  0  0  0
    1.1200    0.5968    0.0000 C   0  0  0  0  0  0  0  0  0  0  0  0
    0.4055    0.1843    0.0000 C   0  0  0  0  0  0  0  0  0  0  0  0
   -0.3089    0.5968    0.0000 C   0  0  0  0  0  0  0  0  0  0  0  0
   -1.0234    0.1843    0.0000 C   0  0  0  0  0  0  0  0  0  0  0  0
    1.1200    1.4218    0.0000 C   0  0  0  0  0  0  0  0  0  0  0  0
    1.1200   -1.0532    0.0000 O   0  0  0  0  0  0  0  0  0  0  0  0
    2.5490   -1.0532    0.0000 O   0  0  0  0  0  0  0  0  0  0  0  0
  1  2  1  0  0  0  0
  2  3  2  0  0  0  0
  2 10  1  0  0  0  0
  3  4  1  0  0  0  0
  4  8  2  0  0  0  0
  4 12  1  0  0  0  0
  5  6  1  0  0  0  0
  5 12  1  0  0  0  0
  5 13  2  0  0  0  0
  6  7  2  0  0  0  0
  7  8  1  0  0  0  0
  7 11  1  0  0  0  0
  8  9  1  0  0  0  0
  9 10  2  0  0  0  0
M  END
> <DRUGBANK_ID>
DB08168

> <DRUG_GROUPS>
experimental

> <GENERIC_NAME>
7-AMINO-4-METHYL-CHROMEN-2-ONE

> <CHEMICAL_FORMULA>
C10H9NO2

> <MOLECULAR_WEIGHT>
175.184

> <EXACT_MASS>
175.063328537

> <IUPAC_NAME>
7-amino-4-methyl-2H-chromen-2-one

> <IUPAC_TRADITIONAL_NAME>
7-amino-4-methylcoumarin

> <INCHI_IDENTIFIER>
InChI=1S/C10H9NO2/c1-6-4-10(12)13-9-5-7(11)2-3-8(6)9/h2-5H,11H2,1H3

> <INCHI_KEY>
InChIKey=GLNDAGDHSLMOKX-UHFFFAOYSA-N

> <SMILES>
CC1=CC(=O)OC2=C1C=CC(N)=C2

> <JCHEM_ACCEPTOR_COUNT>
2

> <JCHEM_DONOR_COUNT>
1

> <JCHEM_BASIC_PKA>
3.37

> <JCHEM_PHYSIOLOGICAL_CHARGE>
0

> <ALOGPS_LOGP>
1.59

> <JCHEM_LOGP>
1.25

> <ALOGPS_LOGS>
-2.1

> <JCHEM_POLARIZABILITY>
17.93

> <JCHEM_POLAR_SURFACE_AREA>
52.32

> <JCHEM_REFRACTIVITY>
50.53

> <JCHEM_ROTATABLE_BOND_COUNT>
0

> <ALOGPS_SOLUBILITY>
1.30e+00 g/l __ 

$$$$
