LZB
  Mrv0541 02241213532D          

 16 17  0  0  0  0            999 V2000
   16.1808    5.6542    0.0000 C    0  0  0  0  0  0  0  0  0  0  0  0
   16.1808    4.8292    0.0000 C    0  0  0  0  0  0  0  0  0  0  0  0
   16.8953    4.4167    0.0000 C    0  0  0  0  0  0  0  0  0  0  0  0
   15.4663    4.4167    0.0000 N    0  0  0  0  0  0  0  0  0  0  0  0
   15.4663    3.5917    0.0000 C    0  0  0  0  0  0  0  0  0  0  0  0
   16.1808    3.1792    0.0000 C    0  0  0  0  0  0  0  0  0  0  0  0
   16.1808    2.3542    0.0000 C    0  0  0  0  0  0  0  0  0  0  0  0
   16.8953    1.9417    0.0000 Cl   0  0  0  0  0  0  0  0  0  0  0  0
   15.4663    1.9417    0.0000 N    0  0  0  0  0  0  0  0  0  0  0  0
   14.7519    2.3542    0.0000 C    0  0  0  0  0  0  0  0  0  0  0  0
   13.9672    2.0993    0.0000 C    0  0  0  0  0  0  0  0  0  0  0  0
   13.7123    1.3146    0.0000 C    0  0  0  0  0  0  0  0  0  0  0  0
   13.4574    0.5300    0.0000 N    0  0  0  0  0  0  0  0  0  0  0  0
   13.4823    2.7667    0.0000 C    0  0  0  0  0  0  0  0  0  0  0  0
   13.9672    3.4341    0.0000 N    0  0  0  0  0  0  0  0  0  0  0  0
   14.7519    3.1792    0.0000 N    0  0  0  0  0  0  0  0  0  0  0  0
  1  2  1  0  0  0  0
  2  3  1  0  0  0  0
  2  4  1  0  0  0  0
  4  5  1  0  0  0  0
  5  6  2  0  0  0  0
  5 16  1  0  0  0  0
  6  7  1  0  0  0  0
  7  8  1  0  0  0  0
  7  9  2  0  0  0  0
  9 10  1  0  0  0  0
 10 11  2  0  0  0  0
 10 16  1  0  0  0  0
 11 12  1  0  0  0  0
 11 14  1  0  0  0  0
 12 13  3  0  0  0  0
 14 15  2  0  0  0  0
 15 16  1  0  0  0  0
M  END
> <DRUGBANK_ID>
DB08139

> <DRUG_GROUPS>
experimental

> <GENERIC_NAME>
5-chloro-7-[(1-methylethyl)amino]pyrazolo[1,5-a]pyrimidine-3-carbonitrile

> <CHEMICAL_FORMULA>
C10H10ClN5

> <MOLECULAR_WEIGHT>
235.673

> <EXACT_MASS>
235.062473052

> <IUPAC_NAME>
5-chloro-7-[(propan-2-yl)amino]pyrazolo[1,5-a]pyrimidine-3-carbonitrile

> <IUPAC_TRADITIONAL_NAME>
5-chloro-7-(isopropylamino)pyrazolo[1,5-a]pyrimidine-3-carbonitrile

> <INCHI_IDENTIFIER>
InChI=1S/C10H10ClN5/c1-6(2)14-9-3-8(11)15-10-7(4-12)5-13-16(9)10/h3,5-6,14H,1-2H3

> <INCHI_KEY>
InChIKey=HFTLYNKTSANXFA-UHFFFAOYSA-N

> <SMILES>
CC(C)NC1=CC(Cl)=NC2=C(C=NN12)C#N

> <JCHEM_ACCEPTOR_COUNT>
4

> <JCHEM_DONOR_COUNT>
1

> <JCHEM_BASIC_PKA>
0.34

> <JCHEM_PHYSIOLOGICAL_CHARGE>
0

> <ALOGPS_LOGP>
2.04

> <JCHEM_LOGP>
1.67

> <ALOGPS_LOGS>
-3.3

> <JCHEM_POLARIZABILITY>
23.43

> <JCHEM_POLAR_SURFACE_AREA>
66.01

> <JCHEM_REFRACTIVITY>
73.98

> <JCHEM_ROTATABLE_BOND_COUNT>
2

> <ALOGPS_SOLUBILITY>
1.18e-01 g/l __ 

$$$$
