OLP
  Mrv0541 02241214012D          

 24 26  0  0  0  0            999 V2000
    0.7222    2.6682    0.0000 C    0  0  0  0  0  0  0  0  0  0  0  0
    1.4367    3.0807    0.0000 C    0  0  0  0  0  0  0  0  0  0  0  0
    1.4367    3.9057    0.0000 Cl   0  0  0  0  0  0  0  0  0  0  0  0
    2.1511    2.6682    0.0000 C    0  0  0  0  0  0  0  0  0  0  0  0
    2.1511    1.8432    0.0000 C    0  0  0  0  0  0  0  0  0  0  0  0
    1.4367    1.4307    0.0000 C    0  0  0  0  0  0  0  0  0  0  0  0
    0.7222    1.8432    0.0000 C    0  0  0  0  0  0  0  0  0  0  0  0
    0.0077    1.4307    0.0000 N    0  0  0  0  0  0  0  0  0  0  0  0
    0.0077    0.6057    0.0000 C    0  0  0  0  0  0  0  0  0  0  0  0
    0.7222    0.1932    0.0000 N    0  0  0  0  0  0  0  0  0  0  0  0
   -0.7068    0.1932    0.0000 C    0  0  0  0  0  0  0  0  0  0  0  0
   -1.4914    0.4482    0.0000 N    0  0  0  0  0  0  0  0  0  0  0  0
   -1.9763   -0.2193    0.0000 C    0  0  0  0  0  0  0  0  0  0  0  0
   -1.4914   -0.8867    0.0000 N    0  0  0  0  0  0  0  0  0  0  0  0
   -1.7463   -1.6713    0.0000 C    0  0  0  0  0  0  0  0  0  0  0  0
   -1.1943   -2.2844    0.0000 C    0  0  0  0  0  0  0  0  0  0  0  0
   -2.5533   -1.8428    0.0000 C    0  0  0  0  0  0  0  0  0  0  0  0
   -0.7068   -0.6318    0.0000 C    0  0  0  0  0  0  0  0  0  0  0  0
    0.0077   -1.0443    0.0000 N    0  0  0  0  0  0  0  0  0  0  0  0
    0.7222   -0.6318    0.0000 C    0  0  0  0  0  0  0  0  0  0  0  0
    1.4367   -1.0443    0.0000 N    0  0  0  0  0  0  0  0  0  0  0  0
    2.1511   -0.6318    0.0000 C    0  0  0  0  0  0  0  0  0  0  0  0
    2.8656   -1.0443    0.0000 C    0  0  0  0  0  0  0  0  0  0  0  0
    3.5801   -0.6318    0.0000 O    0  0  0  0  0  0  0  0  0  0  0  0
  1  2  2  0  0  0  0
  1  7  1  0  0  0  0
  2  3  1  0  0  0  0
  2  4  1  0  0  0  0
  4  5  2  0  0  0  0
  5  6  1  0  0  0  0
  6  7  2  0  0  0  0
  7  8  1  0  0  0  0
  8  9  2  0  0  0  0
  9 10  1  0  0  0  0
  9 11  1  0  0  0  0
 10 20  2  0  0  0  0
 11 12  1  0  0  0  0
 11 18  2  0  0  0  0
 12 13  2  0  0  0  0
 13 14  1  0  0  0  0
 14 15  1  0  0  0  0
 14 18  1  0  0  0  0
 15 16  1  0  0  0  0
 15 17  1  0  0  0  0
 18 19  1  0  0  0  0
 19 20  1  0  0  0  0
 20 21  1  0  0  0  0
 21 22  1  0  0  0  0
 22 23  1  0  0  0  0
 23 24  1  0  0  0  0
M  END
> <DRUGBANK_ID>
DB08325

> <DRUG_GROUPS>
experimental

> <GENERIC_NAME>
2-(2-HYDROXYETHYLAMINO)-6-(3-CHLOROANILINO)-9-ISOPROPYLPURINE

> <CHEMICAL_FORMULA>
C16H19ClN6O

> <MOLECULAR_WEIGHT>
346.815

> <EXACT_MASS>
346.130886967

> <IUPAC_NAME>
2-{[(6Z)-6-[(3-chlorophenyl)imino]-9-(propan-2-yl)-6,9-dihydro-3H-purin-2-yl]amino}ethan-1-ol

> <IUPAC_TRADITIONAL_NAME>
2-{[(6Z)-6-[(3-chlorophenyl)imino]-9-isopropyl-3H-purin-2-yl]amino}ethanol

> <INCHI_IDENTIFIER>
InChI=1S/C16H19ClN6O/c1-10(2)23-9-19-13-14(20-12-5-3-4-11(17)8-12)21-16(18-6-7-24)22-15(13)23/h3-5,8-10,24H,6-7H2,1-2H3,(H2,18,20,21,22)

> <INCHI_KEY>
InChIKey=XZEFMZCNXDQXOZ-UHFFFAOYSA-N

> <SMILES>
CC(C)N1C=NC2=C1NC(NCCO)=N\C2=N/C1=CC=CC(Cl)=C1

> <JCHEM_ACCEPTOR_COUNT>
6

> <JCHEM_DONOR_COUNT>
3

> <JCHEM_ACIDIC_PKA>
10.32

> <JCHEM_BASIC_PKA>
6.11

> <JCHEM_PHYSIOLOGICAL_CHARGE>
0

> <ALOGPS_LOGP>
2.21

> <JCHEM_LOGP>
2.14

> <ALOGPS_LOGS>
-3

> <JCHEM_POLARIZABILITY>
36.98

> <JCHEM_POLAR_SURFACE_AREA>
86.83

> <JCHEM_REFRACTIVITY>
96.47

> <JCHEM_ROTATABLE_BOND_COUNT>
5

> <ALOGPS_SOLUBILITY>
3.07e-01 g/l __ 

$$$$
