JPR
  Mrv0541 02241213482D          

 25 26  0  0  0  0            999 V2000
   -4.7890   -1.7564    0.0000 Cl   0  0  0  0  0  0  0  0  0  0  0  0
   -6.2180   -0.9314    0.0000 C    0  0  0  0  0  0  0  0  0  0  0  0
   -3.3601    0.7186    0.0000 N    0  0  0  0  0  0  0  0  0  0  0  0
   -2.6456   -0.5189    0.0000 O    0  0  0  0  0  0  0  0  0  0  0  0
    0.2122    0.3061    0.0000 S    0  0  0  0  0  0  0  0  0  0  0  0
   -5.5035   -0.5189    0.0000 C    0  0  0  0  0  0  0  0  0  0  0  0
   -1.9312    0.7186    0.0000 N    0  0  0  0  0  0  0  0  0  0  0  0
    2.3949    0.6416    0.0000 O    0  0  0  0  0  0  0  0  0  0  0  0
   -5.5035    0.3061    0.0000 C    0  0  0  0  0  0  0  0  0  0  0  0
    4.2523   -0.5527    0.0000 N    0  0  0  0  0  0  0  0  0  0  0  0
   -4.7890   -0.9314    0.0000 C    0  0  0  0  0  0  0  0  0  0  0  0
   -4.7890    0.7186    0.0000 C    0  0  0  0  0  0  0  0  0  0  0  0
   -4.0746   -0.5189    0.0000 C    0  0  0  0  0  0  0  0  0  0  0  0
   -4.0746    0.3061    0.0000 C    0  0  0  0  0  0  0  0  0  0  0  0
   -2.6456    0.3061    0.0000 C    0  0  0  0  0  0  0  0  0  0  0  0
   -1.2167    0.3061    0.0000 C    0  0  0  0  0  0  0  0  0  0  0  0
   -0.5022    0.7186    0.0000 C    0  0  0  0  0  0  0  0  0  0  0  0
    0.9267    0.7186    0.0000 C    0  0  0  0  0  0  0  0  0  0  0  0
    1.6412    0.3061    0.0000 C    0  0  0  0  0  0  0  0  0  0  0  0
    1.7274   -0.5144    0.0000 C    0  0  0  0  0  0  0  0  0  0  0  0
    2.5344   -0.6859    0.0000 C    0  0  0  0  0  0  0  0  0  0  0  0
    2.9469    0.0285    0.0000 C    0  0  0  0  0  0  0  0  0  0  0  0
    3.7674    0.1148    0.0000 C    0  0  0  0  0  0  0  0  0  0  0  0
    5.0728   -0.4664    0.0000 C    0  0  0  0  0  0  0  0  0  0  0  0
    3.9167   -1.3064    0.0000 C    0  0  0  0  0  0  0  0  0  0  0  0
  1 11  1  0  0  0  0
  3 14  1  0  0  0  0
  3 15  1  0  0  0  0
  5 17  1  0  0  0  0
  6  2  1  0  0  0  0
  6  9  2  0  0  0  0
  7 16  1  0  0  0  0
  7 15  1  0  0  0  0
  8 22  1  0  0  0  0
 10 24  1  0  0  0  0
 10 25  1  0  0  0  0
 11  6  1  0  0  0  0
 12  9  1  0  0  0  0
 13 11  2  0  0  0  0
 13 14  1  0  0  0  0
 14 12  2  0  0  0  0
 15  4  2  0  0  0  0
 17 16  1  0  0  0  0
 18  5  1  0  0  0  0
 18 19  1  0  0  0  0
 19 20  2  0  0  0  0
 19  8  1  0  0  0  0
 20 21  1  0  0  0  0
 21 22  2  0  0  0  0
 22 23  1  0  0  0  0
 23 10  1  0  0  0  0
M  END
> <DRUGBANK_ID>
DB08027

> <DRUG_GROUPS>
experimental

> <GENERIC_NAME>
1-(3-chloro-4-methylphenyl)-3-{2-[({5-[(dimethylamino)methyl]-2-furyl}methyl)thio]ethyl}urea

> <CHEMICAL_FORMULA>
C18H24ClN3O2S

> <MOLECULAR_WEIGHT>
381.92

> <EXACT_MASS>
381.127775424

> <IUPAC_NAME>
1-(3-chloro-4-methylphenyl)-3-{2-[({5-[(dimethylamino)methyl]furan-2-yl}methyl)sulfanyl]ethyl}urea

> <IUPAC_TRADITIONAL_NAME>
1-(3-chloro-4-methylphenyl)-3-{2-[({5-[(dimethylamino)methyl]furan-2-yl}methyl)sulfanyl]ethyl}urea

> <INCHI_IDENTIFIER>
InChI=1S/C18H24ClN3O2S/c1-13-4-5-14(10-17(13)19)21-18(23)20-8-9-25-12-16-7-6-15(24-16)11-22(2)3/h4-7,10H,8-9,11-12H2,1-3H3,(H2,20,21,23)

> <INCHI_KEY>
InChIKey=WEYNBWVKOYCCQT-UHFFFAOYSA-N

> <SMILES>
CN(C)CC1=CC=C(CSCCNC(=O)NC2=CC=C(C)C(Cl)=C2)O1

> <JCHEM_ACCEPTOR_COUNT>
2

> <JCHEM_DONOR_COUNT>
2

> <JCHEM_ACIDIC_PKA>
13.65

> <JCHEM_BASIC_PKA>
8.08

> <JCHEM_PHYSIOLOGICAL_CHARGE>
1

> <ALOGPS_LOGP>
3.48

> <JCHEM_LOGP>
3.4

> <ALOGPS_LOGS>
-4.2

> <JCHEM_POLARIZABILITY>
41.01

> <JCHEM_POLAR_SURFACE_AREA>
57.51

> <JCHEM_REFRACTIVITY>
107.09

> <JCHEM_ROTATABLE_BOND_COUNT>
8

> <ALOGPS_SOLUBILITY>
2.23e-02 g/l __ 

$$$$
