PEY
  Mrv0541 02241214032D          

 14 16  0  0  0  0            999 V2000
    0.8250    0.8756    0.0000 C   0  0  0  0  0  0  0  0  0  0  0  0
    1.6500    0.8756    0.0000 C   0  0  0  0  0  0  0  0  0  0  0  0
    2.0625    0.1611    0.0000 C   0  0  0  0  0  0  0  0  0  0  0  0
    1.6500   -0.5534    0.0000 C   0  0  0  0  0  0  0  0  0  0  0  0
    0.8250   -0.5534    0.0000 C   0  0  0  0  0  0  0  0  0  0  0  0
    0.4125    0.1611    0.0000 C   0  0  0  0  0  0  0  0  0  0  0  0
   -0.4125    0.1611    0.0000 C   0  0  0  0  0  0  0  0  0  0  0  0
   -0.8250   -0.5534    0.0000 C   0  0  0  0  0  0  0  0  0  0  0  0
   -0.4125   -1.2678    0.0000 C   0  0  0  0  0  0  0  0  0  0  0  0
    0.4125   -1.2678    0.0000 C   0  0  0  0  0  0  0  0  0  0  0  0
   -0.8250    0.8756    0.0000 C   0  0  0  0  0  0  0  0  0  0  0  0
   -1.6500    0.8756    0.0000 C   0  0  0  0  0  0  0  0  0  0  0  0
   -2.0625    0.1611    0.0000 C   0  0  0  0  0  0  0  0  0  0  0  0
   -1.6500   -0.5534    0.0000 C   0  0  0  0  0  0  0  0  0  0  0  0
  1  2  1  0  0  0  0
  1  6  2  0  0  0  0
  2  3  2  0  0  0  0
  3  4  1  0  0  0  0
  4  5  2  0  0  0  0
  5  6  1  0  0  0  0
  5 10  1  0  0  0  0
  6  7  1  0  0  0  0
  7  8  1  0  0  0  0
  7 11  2  0  0  0  0
  8  9  1  0  0  0  0
  8 14  2  0  0  0  0
  9 10  2  0  0  0  0
 11 12  1  0  0  0  0
 12 13  2  0  0  0  0
 13 14  1  0  0  0  0
M  END
> <DRUGBANK_ID>
DB08381

> <DRUG_GROUPS>
experimental

> <GENERIC_NAME>
PHENANTHRENE

> <CHEMICAL_FORMULA>
C14H10

> <MOLECULAR_WEIGHT>
178.2292

> <EXACT_MASS>
178.07825032

> <IUPAC_NAME>
phenanthrene

> <IUPAC_TRADITIONAL_NAME>
phenanthrene

> <INCHI_IDENTIFIER>
InChI=1S/C14H10/c1-3-7-13-11(5-1)9-10-12-6-2-4-8-14(12)13/h1-10H

> <INCHI_KEY>
InChIKey=YNPNZTXNASCQKK-UHFFFAOYSA-N

> <SMILES>
C1=CC=C2C(C=CC3=CC=CC=C23)=C1

> <JCHEM_ACCEPTOR_COUNT>
0

> <JCHEM_DONOR_COUNT>
0

> <JCHEM_PHYSIOLOGICAL_CHARGE>
0

> <ALOGPS_LOGP>
4.55

> <JCHEM_LOGP>
3.95

> <ALOGPS_LOGS>
-5.7

> <JCHEM_POLARIZABILITY>
20.43

> <JCHEM_POLAR_SURFACE_AREA>
0

> <JCHEM_REFRACTIVITY>
58.96

> <JCHEM_ROTATABLE_BOND_COUNT>
0

> <ALOGPS_SOLUBILITY>
3.41e-04 g/l __ 

$$$$
