UOC
  Mrv0541 02241214152D          

 12 11  0  0  0  0            999 V2000
   -3.1158    0.2362    0.0000 C   0  0  0  0  0  0  0  0  0  0  0  0
   -2.4014   -0.1763    0.0000 C   0  0  0  0  0  0  0  0  0  0  0  0
   -1.6868    0.2362    0.0000 C   0  0  0  0  0  0  0  0  0  0  0  0
   -0.9723   -0.1763    0.0000 C   0  0  0  0  0  0  0  0  0  0  0  0
   -0.2578    0.2362    0.0000 C   0  0  0  0  0  0  0  0  0  0  0  0
    0.4567   -0.1763    0.0000 C   0  0  0  0  0  0  0  0  0  0  0  0
    1.1713    0.2362    0.0000 C   0  0  0  0  0  0  0  0  0  0  0  0
    1.8857   -0.1763    0.0000 C   0  0  0  0  0  0  0  0  0  0  0  0
    2.6003    0.2362    0.0000 C   0  0  0  0  0  0  0  0  0  0  0  0
    3.3148   -0.1763    0.0000 C   0  0  0  0  0  0  0  0  0  0  0  0
    4.0294    0.2362    0.0000 O   0  0  0  0  0  0  0  0  0  0  0  0
    3.3148   -1.0014    0.0000 C   0  0  0  0  0  0  0  0  0  0  0  0
  1  2  1  0  0  0  0
  2  3  1  0  0  0  0
  3  4  1  0  0  0  0
  4  5  1  0  0  0  0
  5  6  1  0  0  0  0
  6  7  1  0  0  0  0
  7  8  1  0  0  0  0
  8  9  1  0  0  0  0
  9 10  1  0  0  0  0
 10 11  2  0  0  0  0
 10 12  1  0  0  0  0
M  END
> <DRUGBANK_ID>
DB08688

> <DRUG_GROUPS>
experimental

> <GENERIC_NAME>
undecan-2-one

> <CHEMICAL_FORMULA>
C11H22O

> <MOLECULAR_WEIGHT>
170.2918

> <EXACT_MASS>
170.167065326

> <IUPAC_NAME>
undecan-2-one

> <IUPAC_TRADITIONAL_NAME>
undecanone

> <INCHI_IDENTIFIER>
InChI=1S/C11H22O/c1-3-4-5-6-7-8-9-10-11(2)12/h3-10H2,1-2H3

> <INCHI_KEY>
InChIKey=KYWIYKKSMDLRDC-UHFFFAOYSA-N

> <SMILES>
CCCCCCCCCC(C)=O

> <JCHEM_ACCEPTOR_COUNT>
1

> <JCHEM_DONOR_COUNT>
0

> <JCHEM_ACIDIC_PKA>
19.64

> <JCHEM_BASIC_PKA>
-7.3

> <JCHEM_PHYSIOLOGICAL_CHARGE>
0

> <ALOGPS_LOGP>
4.25

> <JCHEM_LOGP>
3.92

> <ALOGPS_LOGS>
-4.2

> <JCHEM_POLARIZABILITY>
22.66

> <JCHEM_POLAR_SURFACE_AREA>
17.07

> <JCHEM_REFRACTIVITY>
53.03

> <JCHEM_ROTATABLE_BOND_COUNT>
8

> <ALOGPS_SOLUBILITY>
1.18e-02 g/l __ 

$$$$
